MODEL 1
REMARK VINA RESULT:     -10.6      0.000      0.000
REMARK  16 active torsions:
REMARK  status: ('A' for Active; 'I' for Inactive)
REMARK    1  A    between atoms: C_6  and  C_7 
REMARK    2  A    between atoms: C_7  and  C_8 
REMARK    3  A    between atoms: C_8  and  C_9 
REMARK    4  A    between atoms: C_9  and  O_11 
REMARK    5  A    between atoms: C_16  and  C_17 
REMARK    6  A    between atoms: C_17  and  C_18 
REMARK    7  A    between atoms: C_18  and  C_19 
REMARK    8  A    between atoms: C_19  and  O_21 
REMARK    9  A    between atoms: C_28  and  C_29 
REMARK   10  A    between atoms: C_29  and  C_30 
REMARK   11  A    between atoms: C_30  and  C_31 
REMARK   12  A    between atoms: C_31  and  O_33 
REMARK   13  A    between atoms: C_42  and  C_43 
REMARK   14  A    between atoms: C_43  and  C_44 
REMARK   15  A    between atoms: C_44  and  C_45 
REMARK   16  A    between atoms: C_45  and  O_47 
ROOT
HETATM    1  C   UNK     0       9.357 -16.013  -1.300  0.00  0.00     0.051 C 
HETATM    2  C   UNK     0      10.356 -14.893  -1.506  0.00  0.00    -0.031 A 
HETATM    3  C   UNK     0      11.164 -14.624  -2.600  0.00  0.00     0.021 A 
HETATM    4  N   UNK     0      11.924 -13.537  -2.331  0.00  0.00    -0.361 N 
HETATM    5  C   UNK     0      11.612 -13.101  -1.092  0.00  0.00     0.022 A 
HETATM    6  C   UNK     0      10.637 -13.928  -0.547  0.00  0.00    -0.027 A 
HETATM    7  C   UNK     0      12.095 -11.888  -0.360  0.00  0.00     0.115 C 
HETATM    8  C   UNK     0      12.194 -10.602  -1.163  0.00  0.00     0.021 A 
HETATM    9  N   UNK     0      11.394 -10.168  -2.149  0.00  0.00    -0.361 N 
HETATM   10  C   UNK     0      11.914  -9.022  -2.636  0.00  0.00     0.022 A 
HETATM   11  C   UNK     0      13.076  -8.704  -1.939  0.00  0.00    -0.027 A 
HETATM   12  C   UNK     0      13.258  -9.695  -1.009  0.00  0.00    -0.031 A 
HETATM   13  C   UNK     0      14.398  -9.765  -0.018  0.00  0.00     0.051 C 
HETATM   14  C   UNK     0      11.368  -8.212  -3.809  0.00  0.00     0.115 C 
HETATM   15  C   UNK     0      11.337  -8.975  -5.123  0.00  0.00     0.021 A 
HETATM   16  N   UNK     0      10.692 -10.126  -5.389  0.00  0.00    -0.361 N 
HETATM   17  C   UNK     0      10.972 -10.508  -6.637  0.00  0.00     0.022 A 
HETATM   18  C   UNK     0      11.833  -9.554  -7.216  0.00  0.00    -0.027 A 
HETATM   19  C   UNK     0      12.053  -8.599  -6.258  0.00  0.00    -0.031 A 
HETATM   20  C   UNK     0      12.903  -7.361  -6.479  0.00  0.00     0.051 C 
HETATM   21  C   UNK     0      10.560 -11.754  -7.388  0.00  0.00     0.115 C 
HETATM   22  C   UNK     0      10.415 -13.030  -6.594  0.00  0.00     0.022 A 
HETATM   23  N   UNK     0      11.194 -13.486  -5.605  0.00  0.00    -0.361 N 
HETATM   24  C   UNK     0      10.615 -14.586  -5.083  0.00  0.00     0.021 A 
HETATM   25  C   UNK     0       9.440 -14.852  -5.759  0.00  0.00    -0.031 A 
HETATM   26  C   UNK     0       8.467 -15.995  -5.566  0.00  0.00     0.051 C 
HETATM   27  C   UNK     0       9.290 -13.870  -6.732  0.00  0.00    -0.027 A 
HETATM   28  C   UNK     0      11.076 -15.399  -3.885  0.00  0.00     0.115 C 
HETATM   29  H   UNK     0      12.704 -13.108  -3.002  0.00  0.00     0.165 HD
HETATM   30  H   UNK     0      10.434 -10.642  -2.470  0.00  0.00     0.165 HD
HETATM   31  H   UNK     0       9.986 -10.657  -4.698  0.00  0.00     0.165 HD
HETATM   32  H   UNK     0      12.183 -13.059  -5.294  0.00  0.00     0.165 HD
ENDROOT
BRANCH   6  33
HETATM   33  C   UNK     0       9.962 -13.875   0.800  0.00  0.00     0.051 C 
BRANCH  33  34
HETATM   34  C   UNK     0       9.594 -12.454   1.158  0.00  0.00     0.114 C 
BRANCH  34  35
HETATM   35  C   UNK     0      10.074 -12.205   2.548  0.00  0.00     0.139 C 
HETATM   36  O   UNK     0      10.076 -13.142   3.398  0.00  0.00    -0.650 OA
BRANCH  35  37
HETATM   37  O   UNK     0      10.534 -10.964   2.970  0.00  0.00    -0.776 OA
HETATM   38  H   UNK     0      10.096 -10.459   3.723  0.00  0.00     0.167 HD
ENDBRANCH  35  37
ENDBRANCH  34  35
ENDBRANCH  33  34
ENDBRANCH   6  33
BRANCH  27  39
HETATM   39  C   UNK     0       8.171 -13.864  -7.712  0.00  0.00     0.051 C 
BRANCH  39  40
HETATM   40  C   UNK     0       8.465 -14.203  -9.104  0.00  0.00     0.114 C 
BRANCH  40  41
HETATM   41  C   UNK     0       8.640 -13.192 -10.123  0.00  0.00     0.139 C 
HETATM   42  O   UNK     0       7.874 -12.231 -10.271  0.00  0.00    -0.650 OA
BRANCH  41  43
HETATM   43  O   UNK     0       9.748 -13.293 -11.012  0.00  0.00    -0.776 OA
HETATM   44  H   UNK     0       9.626 -12.802 -11.889  0.00  0.00     0.167 HD
ENDBRANCH  41  43
ENDBRANCH  40  41
ENDBRANCH  39  40
ENDBRANCH  27  39
BRANCH  11  45
HETATM   45  C   UNK     0      13.989  -7.522  -2.121  0.00  0.00     0.051 C 
BRANCH  45  46
HETATM   46  C   UNK     0      13.397  -6.413  -2.912  0.00  0.00     0.114 C 
BRANCH  46  47
HETATM   47  C   UNK     0      14.368  -5.283  -2.885  0.00  0.00     0.139 C 
HETATM   48  O   UNK     0      15.120  -5.124  -3.858  0.00  0.00    -0.650 OA
BRANCH  47  49
HETATM   49  O   UNK     0      14.431  -4.436  -1.808  0.00  0.00    -0.776 OA
HETATM   50  H   UNK     0      14.073  -3.474  -1.848  0.00  0.00     0.167 HD
ENDBRANCH  47  49
ENDBRANCH  46  47
ENDBRANCH  45  46
ENDBRANCH  11  45
BRANCH  18  51
HETATM   51  C   UNK     0      12.398  -9.543  -8.613  0.00  0.00     0.051 C 
BRANCH  51  52
HETATM   52  C   UNK     0      11.445  -8.704  -9.451  0.00  0.00     0.114 C 
BRANCH  52  53
HETATM   53  C   UNK     0      11.159  -9.335 -10.754  0.00  0.00     0.139 C 
HETATM   54  O   UNK     0      11.774  -8.971 -11.769  0.00  0.00    -0.650 OA
BRANCH  53  55
HETATM   55  O   UNK     0      10.207 -10.322 -10.836  0.00  0.00    -0.776 OA
HETATM   56  H   UNK     0       9.736 -10.612 -11.661  0.00  0.00     0.167 HD
ENDBRANCH  53  55
ENDBRANCH  52  53
ENDBRANCH  51  52
ENDBRANCH  18  51
TORSDOF 16
ENDMDL
MODEL 2
REMARK VINA RESULT:      -9.7      4.686      9.457
REMARK  16 active torsions:
REMARK  status: ('A' for Active; 'I' for Inactive)
REMARK    1  A    between atoms: C_6  and  C_7 
REMARK    2  A    between atoms: C_7  and  C_8 
REMARK    3  A    between atoms: C_8  and  C_9 
REMARK    4  A    between atoms: C_9  and  O_11 
REMARK    5  A    between atoms: C_16  and  C_17 
REMARK    6  A    between atoms: C_17  and  C_18 
REMARK    7  A    between atoms: C_18  and  C_19 
REMARK    8  A    between atoms: C_19  and  O_21 
REMARK    9  A    between atoms: C_28  and  C_29 
REMARK   10  A    between atoms: C_29  and  C_30 
REMARK   11  A    between atoms: C_30  and  C_31 
REMARK   12  A    between atoms: C_31  and  O_33 
REMARK   13  A    between atoms: C_42  and  C_43 
REMARK   14  A    between atoms: C_43  and  C_44 
REMARK   15  A    between atoms: C_44  and  C_45 
REMARK   16  A    between atoms: C_45  and  O_47 
ROOT
HETATM    1  C   UNK     0      11.923 -14.203  -4.048  0.00  0.00     0.051 C 
HETATM    2  C   UNK     0      10.658 -15.017  -4.238  0.00  0.00    -0.031 A 
HETATM    3  C   UNK     0       9.452 -14.647  -4.810  0.00  0.00     0.021 A 
HETATM    4  N   UNK     0       8.590 -15.689  -4.736  0.00  0.00    -0.361 N 
HETATM    5  C   UNK     0       9.225 -16.718  -4.137  0.00  0.00     0.022 A 
HETATM    6  C   UNK     0      10.520 -16.331  -3.810  0.00  0.00    -0.027 A 
HETATM    7  C   UNK     0       8.753 -18.119  -3.899  0.00  0.00     0.115 C 
HETATM    8  C   UNK     0       8.008 -18.790  -5.039  0.00  0.00     0.021 A 
HETATM    9  N   UNK     0       8.216 -18.670  -6.360  0.00  0.00    -0.361 N 
HETATM   10  C   UNK     0       7.259 -19.374  -7.001  0.00  0.00     0.022 A 
HETATM   11  C   UNK     0       6.417 -19.972  -6.067  0.00  0.00    -0.027 A 
HETATM   12  C   UNK     0       6.883 -19.608  -4.830  0.00  0.00    -0.031 A 
HETATM   13  C   UNK     0       6.279 -20.031  -3.509  0.00  0.00     0.051 C 
HETATM   14  C   UNK     0       7.069 -19.468  -8.512  0.00  0.00     0.115 C 
HETATM   15  C   UNK     0       6.796 -18.131  -9.182  0.00  0.00     0.021 A 
HETATM   16  N   UNK     0       7.574 -17.033  -9.171  0.00  0.00    -0.361 N 
HETATM   17  C   UNK     0       6.949 -16.046  -9.817  0.00  0.00     0.022 A 
HETATM   18  C   UNK     0       5.709 -16.527 -10.280  0.00  0.00    -0.027 A 
HETATM   19  C   UNK     0       5.625 -17.835  -9.877  0.00  0.00    -0.031 A 
HETATM   20  C   UNK     0       4.455 -18.745 -10.201  0.00  0.00     0.051 C 
HETATM   21  C   UNK     0       7.360 -14.605 -10.021  0.00  0.00     0.115 C 
HETATM   22  C   UNK     0       8.140 -13.938  -8.913  0.00  0.00     0.022 A 
HETATM   23  N   UNK     0       7.958 -14.043  -7.590  0.00  0.00    -0.361 N 
HETATM   24  C   UNK     0       8.968 -13.398  -6.971  0.00  0.00     0.021 A 
HETATM   25  C   UNK     0       9.815 -12.856  -7.919  0.00  0.00    -0.031 A 
HETATM   26  C   UNK     0      11.058 -12.015  -7.716  0.00  0.00     0.051 C 
HETATM   27  C   UNK     0       9.306 -13.189  -9.169  0.00  0.00    -0.027 A 
HETATM   28  C   UNK     0       9.243 -13.318  -5.480  0.00  0.00     0.115 C 
HETATM   29  H   UNK     0       7.527 -15.678  -5.072  0.00  0.00     0.165 HD
HETATM   30  H   UNK     0       9.067 -18.130  -6.842  0.00  0.00     0.165 HD
HETATM   31  H   UNK     0       8.607 -16.965  -8.739  0.00  0.00     0.165 HD
HETATM   32  H   UNK     0       7.090 -14.536  -7.081  0.00  0.00     0.165 HD
ENDROOT
BRANCH   6  33
HETATM   33  C   UNK     0      11.620 -17.104  -3.128  0.00  0.00     0.051 C 
BRANCH  33  34
HETATM   34  C   UNK     0      11.475 -17.029  -1.626  0.00  0.00     0.114 C 
BRANCH  34  35
HETATM   35  C   UNK     0      12.752 -16.486  -1.080  0.00  0.00     0.139 C 
HETATM   36  O   UNK     0      13.339 -15.530  -1.665  0.00  0.00    -0.650 OA
BRANCH  35  37
HETATM   37  O   UNK     0      13.347 -16.987   0.071  0.00  0.00    -0.776 OA
HETATM   38  H   UNK     0      13.833 -17.870   0.081  0.00  0.00     0.167 HD
ENDBRANCH  35  37
ENDBRANCH  34  35
ENDBRANCH  33  34
ENDBRANCH   6  33
BRANCH  27  39
HETATM   39  C   UNK     0       9.915 -12.717 -10.443  0.00  0.00     0.051 C 
BRANCH  39  40
HETATM   40  C   UNK     0       9.850 -11.290 -10.756  0.00  0.00     0.114 C 
BRANCH  40  41
HETATM   41  C   UNK     0      11.038 -10.476 -10.888  0.00  0.00     0.139 C 
HETATM   42  O   UNK     0      12.188 -10.921 -10.776  0.00  0.00    -0.650 OA
BRANCH  41  43
HETATM   43  O   UNK     0      10.895  -9.085 -11.160  0.00  0.00    -0.776 OA
HETATM   44  H   UNK     0      10.473  -8.552 -10.410  0.00  0.00     0.167 HD
ENDBRANCH  41  43
ENDBRANCH  40  41
ENDBRANCH  39  40
ENDBRANCH  27  39
BRANCH  11  45
HETATM   45  C   UNK     0       5.221 -20.854  -6.307  0.00  0.00     0.051 C 
BRANCH  45  46
HETATM   46  C   UNK     0       4.045 -20.141  -6.867  0.00  0.00     0.114 C 
BRANCH  46  47
HETATM   47  C   UNK     0       3.292 -19.559  -5.719  0.00  0.00     0.139 C 
HETATM   48  O   UNK     0       3.628 -18.445  -5.294  0.00  0.00    -0.650 OA
BRANCH  47  49
HETATM   49  O   UNK     0       2.251 -20.242  -5.143  0.00  0.00    -0.776 OA
HETATM   50  H   UNK     0       1.744 -20.984  -5.640  0.00  0.00     0.167 HD
ENDBRANCH  47  49
ENDBRANCH  46  47
ENDBRANCH  45  46
ENDBRANCH  11  45
BRANCH  18  51
HETATM   51  C   UNK     0       4.668 -15.787 -11.080  0.00  0.00     0.051 C 
BRANCH  51  52
HETATM   52  C   UNK     0       4.984 -16.059 -12.544  0.00  0.00     0.114 C 
BRANCH  52  53
HETATM   53  C   UNK     0       5.681 -14.922 -13.176  0.00  0.00     0.139 C 
HETATM   54  O   UNK     0       5.074 -13.859 -13.383  0.00  0.00    -0.650 OA
BRANCH  53  55
HETATM   55  O   UNK     0       7.000 -15.049 -13.537  0.00  0.00    -0.776 OA
HETATM   56  H   UNK     0       7.427 -14.650 -14.340  0.00  0.00     0.167 HD
ENDBRANCH  53  55
ENDBRANCH  52  53
ENDBRANCH  51  52
ENDBRANCH  18  51
TORSDOF 16
ENDMDL
MODEL 3
REMARK VINA RESULT:      -9.4      2.467      9.425
REMARK  16 active torsions:
REMARK  status: ('A' for Active; 'I' for Inactive)
REMARK    1  A    between atoms: C_6  and  C_7 
REMARK    2  A    between atoms: C_7  and  C_8 
REMARK    3  A    between atoms: C_8  and  C_9 
REMARK    4  A    between atoms: C_9  and  O_11 
REMARK    5  A    between atoms: C_16  and  C_17 
REMARK    6  A    between atoms: C_17  and  C_18 
REMARK    7  A    between atoms: C_18  and  C_19 
REMARK    8  A    between atoms: C_19  and  O_21 
REMARK    9  A    between atoms: C_28  and  C_29 
REMARK   10  A    between atoms: C_29  and  C_30 
REMARK   11  A    between atoms: C_30  and  C_31 
REMARK   12  A    between atoms: C_31  and  O_33 
REMARK   13  A    between atoms: C_42  and  C_43 
REMARK   14  A    between atoms: C_43  and  C_44 
REMARK   15  A    between atoms: C_44  and  C_45 
REMARK   16  A    between atoms: C_45  and  O_47 
ROOT
HETATM    1  C   UNK     0      13.161  -6.746  -2.341  0.00  0.00     0.051 C 
HETATM    2  C   UNK     0      12.967  -7.966  -3.219  0.00  0.00    -0.031 A 
HETATM    3  C   UNK     0      13.351  -9.279  -2.997  0.00  0.00     0.021 A 
HETATM    4  N   UNK     0      12.998 -10.029  -4.069  0.00  0.00    -0.361 N 
HETATM    5  C   UNK     0      12.390  -9.223  -4.964  0.00  0.00     0.022 A 
HETATM    6  C   UNK     0      12.357  -7.925  -4.466  0.00  0.00    -0.027 A 
HETATM    7  C   UNK     0      11.735  -9.569  -6.265  0.00  0.00     0.115 C 
HETATM    8  C   UNK     0      10.870 -10.817  -6.281  0.00  0.00     0.021 A 
HETATM    9  N   UNK     0      10.082 -11.301  -5.308  0.00  0.00    -0.361 N 
HETATM   10  C   UNK     0       9.575 -12.480  -5.727  0.00  0.00     0.022 A 
HETATM   11  C   UNK     0      10.041 -12.759  -7.008  0.00  0.00    -0.027 A 
HETATM   12  C   UNK     0      10.857 -11.715  -7.363  0.00  0.00    -0.031 A 
HETATM   13  C   UNK     0      11.586 -11.585  -8.682  0.00  0.00     0.051 C 
HETATM   14  C   UNK     0       8.677 -13.413  -4.919  0.00  0.00     0.115 C 
HETATM   15  C   UNK     0       9.317 -13.930  -3.640  0.00  0.00     0.021 A 
HETATM   16  N   UNK     0       9.793 -13.206  -2.609  0.00  0.00    -0.361 N 
HETATM   17  C   UNK     0      10.339 -14.029  -1.712  0.00  0.00     0.022 A 
HETATM   18  C   UNK     0      10.205 -15.353  -2.175  0.00  0.00    -0.027 A 
HETATM   19  C   UNK     0       9.562 -15.277  -3.384  0.00  0.00    -0.031 A 
HETATM   20  C   UNK     0       9.184 -16.489  -4.215  0.00  0.00     0.051 C 
HETATM   21  C   UNK     0      11.067 -13.717  -0.424  0.00  0.00     0.115 C 
HETATM   22  C   UNK     0      11.896 -12.455  -0.379  0.00  0.00     0.022 A 
HETATM   23  N   UNK     0      12.686 -11.947  -1.334  0.00  0.00    -0.361 N 
HETATM   24  C   UNK     0      13.118 -10.736  -0.927  0.00  0.00     0.021 A 
HETATM   25  C   UNK     0      12.602 -10.463   0.325  0.00  0.00    -0.031 A 
HETATM   26  C   UNK     0      12.831  -9.253   1.208  0.00  0.00     0.051 C 
HETATM   27  C   UNK     0      11.816 -11.548   0.697  0.00  0.00    -0.027 A 
HETATM   28  C   UNK     0      13.961  -9.740  -1.704  0.00  0.00     0.115 C 
HETATM   29  H   UNK     0      13.216 -11.113  -4.202  0.00  0.00     0.165 HD
HETATM   30  H   UNK     0       9.842 -10.789  -4.344  0.00  0.00     0.165 HD
HETATM   31  H   UNK     0       9.699 -12.096  -2.489  0.00  0.00     0.165 HD
HETATM   32  H   UNK     0      12.982 -12.458  -2.287  0.00  0.00     0.165 HD
ENDROOT
BRANCH   6  33
HETATM   33  C   UNK     0      11.798  -6.665  -5.077  0.00  0.00     0.051 C 
BRANCH  33  34
HETATM   34  C   UNK     0      12.580  -6.276  -6.309  0.00  0.00     0.114 C 
BRANCH  34  35
HETATM   35  C   UNK     0      11.607  -5.741  -7.305  0.00  0.00     0.139 C 
HETATM   36  O   UNK     0      10.768  -4.857  -6.965  0.00  0.00    -0.650 OA
BRANCH  35  37
HETATM   37  O   UNK     0      11.573  -6.172  -8.626  0.00  0.00    -0.776 OA
HETATM   38  H   UNK     0      12.215  -5.821  -9.319  0.00  0.00     0.167 HD
ENDBRANCH  35  37
ENDBRANCH  34  35
ENDBRANCH  33  34
ENDBRANCH   6  33
BRANCH  27  39
HETATM   39  C   UNK     0      11.148 -11.649   2.023  0.00  0.00     0.051 C 
BRANCH  39  40
HETATM   40  C   UNK     0      11.943 -12.087   3.169  0.00  0.00     0.114 C 
BRANCH  40  41
HETATM   41  C   UNK     0      11.597 -13.257   3.945  0.00  0.00     0.139 C 
HETATM   42  O   UNK     0      10.447 -13.502   4.336  0.00  0.00    -0.650 OA
BRANCH  41  43
HETATM   43  O   UNK     0      12.619 -14.187   4.286  0.00  0.00    -0.776 OA
HETATM   44  H   UNK     0      13.492 -14.051   3.792  0.00  0.00     0.167 HD
ENDBRANCH  41  43
ENDBRANCH  40  41
ENDBRANCH  39  40
ENDBRANCH  27  39
BRANCH  11  45
HETATM   45  C   UNK     0       9.743 -13.948  -7.881  0.00  0.00     0.051 C 
BRANCH  45  46
HETATM   46  C   UNK     0       8.377 -13.946  -8.463  0.00  0.00     0.114 C 
BRANCH  46  47
HETATM   47  C   UNK     0       8.475 -13.331  -9.818  0.00  0.00     0.139 C 
HETATM   48  O   UNK     0       8.827 -14.045 -10.768  0.00  0.00    -0.650 OA
BRANCH  47  49
HETATM   49  O   UNK     0       8.185 -12.004 -10.011  0.00  0.00    -0.776 OA
HETATM   50  H   UNK     0       8.570 -11.470 -10.799  0.00  0.00     0.167 HD
ENDBRANCH  47  49
ENDBRANCH  46  47
ENDBRANCH  45  46
ENDBRANCH  11  45
BRANCH  18  51
HETATM   51  C   UNK     0      10.646 -16.622  -1.494  0.00  0.00     0.051 C 
BRANCH  51  52
HETATM   52  C   UNK     0      12.164 -16.659  -1.602  0.00  0.00     0.114 C 
BRANCH  52  53
HETATM   53  C   UNK     0      12.611 -16.824  -2.998  0.00  0.00     0.139 C 
HETATM   54  O   UNK     0      12.343 -17.866  -3.618  0.00  0.00    -0.650 OA
BRANCH  53  55
HETATM   55  O   UNK     0      13.328 -15.822  -3.605  0.00  0.00    -0.776 OA
HETATM   56  H   UNK     0      13.962 -15.203  -3.156  0.00  0.00     0.167 HD
ENDBRANCH  53  55
ENDBRANCH  52  53
ENDBRANCH  51  52
ENDBRANCH  18  51
TORSDOF 16
ENDMDL
MODEL 4
REMARK VINA RESULT:      -9.4      2.694      7.621
REMARK  16 active torsions:
REMARK  status: ('A' for Active; 'I' for Inactive)
REMARK    1  A    between atoms: C_6  and  C_7 
REMARK    2  A    between atoms: C_7  and  C_8 
REMARK    3  A    between atoms: C_8  and  C_9 
REMARK    4  A    between atoms: C_9  and  O_11 
REMARK    5  A    between atoms: C_16  and  C_17 
REMARK    6  A    between atoms: C_17  and  C_18 
REMARK    7  A    between atoms: C_18  and  C_19 
REMARK    8  A    between atoms: C_19  and  O_21 
REMARK    9  A    between atoms: C_28  and  C_29 
REMARK   10  A    between atoms: C_29  and  C_30 
REMARK   11  A    between atoms: C_30  and  C_31 
REMARK   12  A    between atoms: C_31  and  O_33 
REMARK   13  A    between atoms: C_42  and  C_43 
REMARK   14  A    between atoms: C_43  and  C_44 
REMARK   15  A    between atoms: C_44  and  C_45 
REMARK   16  A    between atoms: C_45  and  O_47 
ROOT
HETATM    1  C   UNK     0      10.394 -15.118  -0.914  0.00  0.00     0.051 C 
HETATM    2  C   UNK     0       9.870 -14.578  -2.229  0.00  0.00    -0.031 A 
HETATM    3  C   UNK     0       9.410 -13.308  -2.538  0.00  0.00     0.021 A 
HETATM    4  N   UNK     0       9.010 -13.286  -3.831  0.00  0.00    -0.361 N 
HETATM    5  C   UNK     0       9.212 -14.512  -4.355  0.00  0.00     0.022 A 
HETATM    6  C   UNK     0       9.747 -15.346  -3.379  0.00  0.00    -0.027 A 
HETATM    7  C   UNK     0       9.025 -14.988  -5.762  0.00  0.00     0.115 C 
HETATM    8  C   UNK     0       9.499 -14.059  -6.865  0.00  0.00     0.021 A 
HETATM    9  N   UNK     0      10.565 -13.243  -6.871  0.00  0.00    -0.361 N 
HETATM   10  C   UNK     0      10.546 -12.537  -8.021  0.00  0.00     0.022 A 
HETATM   11  C   UNK     0       9.444 -12.916  -8.782  0.00  0.00    -0.027 A 
HETATM   12  C   UNK     0       8.780 -13.874  -8.060  0.00  0.00    -0.031 A 
HETATM   13  C   UNK     0       7.517 -14.582  -8.499  0.00  0.00     0.051 C 
HETATM   14  C   UNK     0      11.532 -11.445  -8.424  0.00  0.00     0.115 C 
HETATM   15  C   UNK     0      11.556 -10.256  -7.477  0.00  0.00     0.021 A 
HETATM   16  N   UNK     0      11.828 -10.262  -6.159  0.00  0.00    -0.361 N 
HETATM   17  C   UNK     0      11.675  -9.027  -5.674  0.00  0.00     0.022 A 
HETATM   18  C   UNK     0      11.293  -8.175  -6.729  0.00  0.00    -0.027 A 
HETATM   19  C   UNK     0      11.224  -8.956  -7.853  0.00  0.00    -0.031 A 
HETATM   20  C   UNK     0      10.879  -8.423  -9.232  0.00  0.00     0.051 C 
HETATM   21  C   UNK     0      11.789  -8.519  -4.255  0.00  0.00     0.115 C 
HETATM   22  C   UNK     0      11.362  -9.450  -3.144  0.00  0.00     0.022 A 
HETATM   23  N   UNK     0      10.308 -10.276  -3.113  0.00  0.00    -0.361 N 
HETATM   24  C   UNK     0      10.390 -11.025  -1.994  0.00  0.00     0.021 A 
HETATM   25  C   UNK     0      11.518 -10.664  -1.283  0.00  0.00    -0.031 A 
HETATM   26  C   UNK     0      12.012 -11.189   0.049  0.00  0.00     0.051 C 
HETATM   27  C   UNK     0      12.156  -9.658  -1.999  0.00  0.00    -0.027 A 
HETATM   28  C   UNK     0       9.477 -12.161  -1.568  0.00  0.00     0.115 C 
HETATM   29  H   UNK     0       8.550 -12.415  -4.353  0.00  0.00     0.165 HD
HETATM   30  H   UNK     0      11.360 -13.199  -6.087  0.00  0.00     0.165 HD
HETATM   31  H   UNK     0      12.182 -11.145  -5.566  0.00  0.00     0.165 HD
HETATM   32  H   UNK     0       9.472 -10.309  -3.860  0.00  0.00     0.165 HD
ENDROOT
BRANCH   6  33
HETATM   33  C   UNK     0      10.142 -16.799  -3.455  0.00  0.00     0.051 C 
BRANCH  33  34
HETATM   34  C   UNK     0      11.460 -16.959  -4.175  0.00  0.00     0.114 C 
BRANCH  34  35
HETATM   35  C   UNK     0      12.542 -16.645  -3.199  0.00  0.00     0.139 C 
HETATM   36  O   UNK     0      13.276 -15.628  -3.366  0.00  0.00    -0.650 OA
BRANCH  35  37
HETATM   37  O   UNK     0      12.794 -17.431  -2.081  0.00  0.00    -0.776 OA
HETATM   38  H   UNK     0      13.100 -18.388  -2.158  0.00  0.00     0.167 HD
ENDBRANCH  35  37
ENDBRANCH  34  35
ENDBRANCH  33  34
ENDBRANCH   6  33
BRANCH  27  39
HETATM   39  C   UNK     0      13.377  -8.964  -1.508  0.00  0.00     0.051 C 
BRANCH  39  40
HETATM   40  C   UNK     0      14.683  -9.503  -1.888  0.00  0.00     0.114 C 
BRANCH  40  41
HETATM   41  C   UNK     0      15.484 -10.294  -0.981  0.00  0.00     0.139 C 
HETATM   42  O   UNK     0      15.533 -10.093   0.240  0.00  0.00    -0.650 OA
BRANCH  41  43
HETATM   43  O   UNK     0      16.264 -11.364  -1.502  0.00  0.00    -0.776 OA
HETATM   44  H   UNK     0      15.730 -12.076  -1.985  0.00  0.00     0.167 HD
ENDBRANCH  41  43
ENDBRANCH  40  41
ENDBRANCH  39  40
ENDBRANCH  27  39
BRANCH  11  45
HETATM   45  C   UNK     0       9.015 -12.412 -10.134  0.00  0.00     0.051 C 
BRANCH  45  46
HETATM   46  C   UNK     0       9.451 -13.269 -11.266  0.00  0.00     0.114 C 
BRANCH  46  47
HETATM   47  C   UNK     0       8.226 -13.669 -12.015  0.00  0.00     0.139 C 
HETATM   48  O   UNK     0       7.127 -13.256 -11.617  0.00  0.00    -0.650 OA
BRANCH  47  49
HETATM   49  O   UNK     0       8.310 -14.477 -13.121  0.00  0.00    -0.776 OA
HETATM   50  H   UNK     0       7.992 -14.169 -14.047  0.00  0.00     0.167 HD
ENDBRANCH  47  49
ENDBRANCH  46  47
ENDBRANCH  45  46
ENDBRANCH  11  45
BRANCH  18  51
HETATM   51  C   UNK     0      11.031  -6.692  -6.673  0.00  0.00     0.051 C 
BRANCH  51  52
HETATM   52  C   UNK     0      12.264  -6.019  -7.256  0.00  0.00     0.114 C 
BRANCH  52  53
HETATM   53  C   UNK     0      11.918  -5.084  -8.345  0.00  0.00     0.139 C 
HETATM   54  O   UNK     0      12.726  -4.209  -8.693  0.00  0.00    -0.650 OA
BRANCH  53  55
HETATM   55  O   UNK     0      10.697  -5.187  -8.965  0.00  0.00    -0.776 OA
HETATM   56  H   UNK     0       9.852  -4.761  -8.665  0.00  0.00     0.167 HD
ENDBRANCH  53  55
ENDBRANCH  52  53
ENDBRANCH  51  52
ENDBRANCH  18  51
TORSDOF 16
ENDMDL
MODEL 5
REMARK VINA RESULT:      -9.1      2.526      7.779
REMARK  16 active torsions:
REMARK  status: ('A' for Active; 'I' for Inactive)
REMARK    1  A    between atoms: C_6  and  C_7 
REMARK    2  A    between atoms: C_7  and  C_8 
REMARK    3  A    between atoms: C_8  and  C_9 
REMARK    4  A    between atoms: C_9  and  O_11 
REMARK    5  A    between atoms: C_16  and  C_17 
REMARK    6  A    between atoms: C_17  and  C_18 
REMARK    7  A    between atoms: C_18  and  C_19 
REMARK    8  A    between atoms: C_19  and  O_21 
REMARK    9  A    between atoms: C_28  and  C_29 
REMARK   10  A    between atoms: C_29  and  C_30 
REMARK   11  A    between atoms: C_30  and  C_31 
REMARK   12  A    between atoms: C_31  and  O_33 
REMARK   13  A    between atoms: C_42  and  C_43 
REMARK   14  A    between atoms: C_43  and  C_44 
REMARK   15  A    between atoms: C_44  and  C_45 
REMARK   16  A    between atoms: C_45  and  O_47 
ROOT
HETATM    1  C   UNK     0      11.011 -14.572  -1.012  0.00  0.00     0.051 C 
HETATM    2  C   UNK     0      10.402 -14.092  -2.313  0.00  0.00    -0.031 A 
HETATM    3  C   UNK     0       9.910 -12.839  -2.645  0.00  0.00     0.021 A 
HETATM    4  N   UNK     0       9.431 -12.875  -3.911  0.00  0.00    -0.361 N 
HETATM    5  C   UNK     0       9.614 -14.120  -4.396  0.00  0.00     0.022 A 
HETATM    6  C   UNK     0      10.217 -14.908  -3.421  0.00  0.00    -0.027 A 
HETATM    7  C   UNK     0       9.347 -14.657  -5.768  0.00  0.00     0.115 C 
HETATM    8  C   UNK     0       9.743 -13.770  -6.936  0.00  0.00     0.021 A 
HETATM    9  N   UNK     0      10.797 -12.946  -7.040  0.00  0.00    -0.361 N 
HETATM   10  C   UNK     0      10.700 -12.289  -8.215  0.00  0.00     0.022 A 
HETATM   11  C   UNK     0       9.557 -12.708  -8.890  0.00  0.00    -0.027 A 
HETATM   12  C   UNK     0       8.950 -13.641  -8.090  0.00  0.00    -0.031 A 
HETATM   13  C   UNK     0       7.671 -14.377  -8.421  0.00  0.00     0.051 C 
HETATM   14  C   UNK     0      11.648 -11.206  -8.723  0.00  0.00     0.115 C 
HETATM   15  C   UNK     0      11.716  -9.978  -7.828  0.00  0.00     0.021 A 
HETATM   16  N   UNK     0      12.068  -9.927  -6.530  0.00  0.00    -0.361 N 
HETATM   17  C   UNK     0      11.931  -8.674  -6.088  0.00  0.00     0.022 A 
HETATM   18  C   UNK     0      11.477  -7.870  -7.152  0.00  0.00    -0.027 A 
HETATM   19  C   UNK     0      11.347  -8.698  -8.236  0.00  0.00    -0.031 A 
HETATM   20  C   UNK     0      10.913  -8.226  -9.612  0.00  0.00     0.051 C 
HETATM   21  C   UNK     0      12.126  -8.107  -4.700  0.00  0.00     0.115 C 
HETATM   22  C   UNK     0      11.778  -8.994  -3.528  0.00  0.00     0.022 A 
HETATM   23  N   UNK     0      10.737  -9.827  -3.399  0.00  0.00    -0.361 N 
HETATM   24  C   UNK     0      10.895 -10.528  -2.257  0.00  0.00     0.021 A 
HETATM   25  C   UNK     0      12.061 -10.128  -1.632  0.00  0.00    -0.031 A 
HETATM   26  C   UNK     0      12.642 -10.592  -0.312  0.00  0.00     0.051 C 
HETATM   27  C   UNK     0      12.643  -9.147  -2.426  0.00  0.00    -0.027 A 
HETATM   28  C   UNK     0      10.023 -11.653  -1.729  0.00  0.00     0.115 C 
HETATM   29  H   UNK     0       8.931 -12.030  -4.439  0.00  0.00     0.165 HD
HETATM   30  H   UNK     0      11.638 -12.863  -6.309  0.00  0.00     0.165 HD
HETATM   31  H   UNK     0      12.467 -10.781  -5.924  0.00  0.00     0.165 HD
HETATM   32  H   UNK     0       9.858  -9.898  -4.091  0.00  0.00     0.165 HD
ENDROOT
BRANCH   6  33
HETATM   33  C   UNK     0      10.622 -16.360  -3.462  0.00  0.00     0.051 C 
BRANCH  33  34
HETATM   34  C   UNK     0       9.724 -17.191  -2.577  0.00  0.00     0.114 C 
BRANCH  34  35
HETATM   35  C   UNK     0       9.035 -18.186  -3.448  0.00  0.00     0.139 C 
HETATM   36  O   UNK     0       8.642 -19.289  -2.969  0.00  0.00    -0.650 OA
BRANCH  35  37
HETATM   37  O   UNK     0       8.793 -17.959  -4.798  0.00  0.00    -0.776 OA
HETATM   38  H   UNK     0       9.189 -17.173  -5.287  0.00  0.00     0.167 HD
ENDBRANCH  35  37
ENDBRANCH  34  35
ENDBRANCH  33  34
ENDBRANCH   6  33
BRANCH  27  39
HETATM   39  C   UNK     0      13.884  -8.423  -2.040  0.00  0.00     0.051 C 
BRANCH  39  40
HETATM   40  C   UNK     0      13.774  -7.020  -1.640  0.00  0.00     0.114 C 
BRANCH  40  41
HETATM   41  C   UNK     0      14.419  -5.956  -2.375  0.00  0.00     0.139 C 
HETATM   42  O   UNK     0      15.618  -5.969  -2.686  0.00  0.00    -0.650 OA
BRANCH  41  43
HETATM   43  O   UNK     0      13.650  -4.825  -2.771  0.00  0.00    -0.776 OA
HETATM   44  H   UNK     0      14.179  -3.964  -2.847  0.00  0.00     0.167 HD
ENDBRANCH  41  43
ENDBRANCH  40  41
ENDBRANCH  39  40
ENDBRANCH  27  39
BRANCH  11  45
HETATM   45  C   UNK     0       9.041 -12.265 -10.233  0.00  0.00     0.051 C 
BRANCH  45  46
HETATM   46  C   UNK     0       9.459 -13.137 -11.360  0.00  0.00     0.114 C 
BRANCH  46  47
HETATM   47  C   UNK     0       8.216 -13.613 -12.034  0.00  0.00     0.139 C 
HETATM   48  O   UNK     0       7.124 -13.195 -11.626  0.00  0.00    -0.650 OA
BRANCH  47  49
HETATM   49  O   UNK     0       8.279 -14.496 -13.082  0.00  0.00    -0.776 OA
HETATM   50  H   UNK     0       8.083 -14.210 -14.049  0.00  0.00     0.167 HD
ENDBRANCH  47  49
ENDBRANCH  46  47
ENDBRANCH  45  46
ENDBRANCH  11  45
BRANCH  18  51
HETATM   51  C   UNK     0      11.202  -6.389  -7.141  0.00  0.00     0.051 C 
BRANCH  51  52
HETATM   52  C   UNK     0      12.494  -5.712  -7.573  0.00  0.00     0.114 C 
BRANCH  52  53
HETATM   53  C   UNK     0      12.284  -4.802  -8.715  0.00  0.00     0.139 C 
HETATM   54  O   UNK     0      11.366  -5.020  -9.522  0.00  0.00    -0.650 OA
BRANCH  53  55
HETATM   55  O   UNK     0      13.110  -3.717  -8.881  0.00  0.00    -0.776 OA
HETATM   56  H   UNK     0      13.056  -3.049  -9.613  0.00  0.00     0.167 HD
ENDBRANCH  53  55
ENDBRANCH  52  53
ENDBRANCH  51  52
ENDBRANCH  18  51
TORSDOF 16
ENDMDL
MODEL 6
REMARK VINA RESULT:      -8.9      2.832      8.272
REMARK  16 active torsions:
REMARK  status: ('A' for Active; 'I' for Inactive)
REMARK    1  A    between atoms: C_6  and  C_7 
REMARK    2  A    between atoms: C_7  and  C_8 
REMARK    3  A    between atoms: C_8  and  C_9 
REMARK    4  A    between atoms: C_9  and  O_11 
REMARK    5  A    between atoms: C_16  and  C_17 
REMARK    6  A    between atoms: C_17  and  C_18 
REMARK    7  A    between atoms: C_18  and  C_19 
REMARK    8  A    between atoms: C_19  and  O_21 
REMARK    9  A    between atoms: C_28  and  C_29 
REMARK   10  A    between atoms: C_29  and  C_30 
REMARK   11  A    between atoms: C_30  and  C_31 
REMARK   12  A    between atoms: C_31  and  O_33 
REMARK   13  A    between atoms: C_42  and  C_43 
REMARK   14  A    between atoms: C_43  and  C_44 
REMARK   15  A    between atoms: C_44  and  C_45 
REMARK   16  A    between atoms: C_45  and  O_47 
ROOT
HETATM    1  C   UNK     0       9.046 -11.973 -10.489  0.00  0.00     0.051 C 
HETATM    2  C   UNK     0       9.534 -12.570  -9.184  0.00  0.00    -0.031 A 
HETATM    3  C   UNK     0      10.685 -12.290  -8.466  0.00  0.00     0.021 A 
HETATM    4  N   UNK     0      10.727 -13.088  -7.372  0.00  0.00    -0.361 N 
HETATM    5  C   UNK     0       9.623 -13.863  -7.374  0.00  0.00     0.022 A 
HETATM    6  C   UNK     0       8.856 -13.567  -8.495  0.00  0.00    -0.027 A 
HETATM    7  C   UNK     0       9.146 -14.842  -6.347  0.00  0.00     0.115 C 
HETATM    8  C   UNK     0       9.268 -14.419  -4.893  0.00  0.00     0.021 A 
HETATM    9  N   UNK     0       9.117 -13.196  -4.363  0.00  0.00    -0.361 N 
HETATM   10  C   UNK     0       9.408 -13.271  -3.047  0.00  0.00     0.022 A 
HETATM   11  C   UNK     0       9.748 -14.580  -2.719  0.00  0.00    -0.027 A 
HETATM   12  C   UNK     0       9.662 -15.309  -3.878  0.00  0.00    -0.031 A 
HETATM   13  C   UNK     0       9.939 -16.790  -4.001  0.00  0.00     0.051 C 
HETATM   14  C   UNK     0       9.430 -12.106  -2.061  0.00  0.00     0.115 C 
HETATM   15  C   UNK     0      10.435 -11.021  -2.413  0.00  0.00     0.021 A 
HETATM   16  N   UNK     0      10.497 -10.294  -3.545  0.00  0.00    -0.361 N 
HETATM   17  C   UNK     0      11.566  -9.496  -3.495  0.00  0.00     0.022 A 
HETATM   18  C   UNK     0      12.226  -9.705  -2.268  0.00  0.00    -0.027 A 
HETATM   19  C   UNK     0      11.507 -10.661  -1.599  0.00  0.00    -0.031 A 
HETATM   20  C   UNK     0      11.856 -11.159  -0.209  0.00  0.00     0.051 C 
HETATM   21  C   UNK     0      12.117  -8.545  -4.534  0.00  0.00     0.115 C 
HETATM   22  C   UNK     0      11.963  -8.933  -5.986  0.00  0.00     0.022 A 
HETATM   23  N   UNK     0      12.104 -10.143  -6.541  0.00  0.00    -0.361 N 
HETATM   24  C   UNK     0      11.733 -10.061  -7.835  0.00  0.00     0.021 A 
HETATM   25  C   UNK     0      11.354  -8.764  -8.122  0.00  0.00    -0.031 A 
HETATM   26  C   UNK     0      10.901  -8.173  -9.441  0.00  0.00     0.051 C 
HETATM   27  C   UNK     0      11.493  -8.022  -6.954  0.00  0.00    -0.027 A 
HETATM   28  C   UNK     0      11.634 -11.189  -8.847  0.00  0.00     0.115 C 
HETATM   29  H   UNK     0      11.556 -13.125  -6.628  0.00  0.00     0.165 HD
HETATM   30  H   UNK     0       8.755 -12.288  -4.904  0.00  0.00     0.165 HD
HETATM   31  H   UNK     0       9.745 -10.310  -4.376  0.00  0.00     0.165 HD
HETATM   32  H   UNK     0      12.508 -11.058  -6.036  0.00  0.00     0.165 HD
ENDROOT
BRANCH   6  33
HETATM   33  C   UNK     0       7.546 -14.154  -8.957  0.00  0.00     0.051 C 
BRANCH  33  34
HETATM   34  C   UNK     0       7.705 -15.617  -9.294  0.00  0.00     0.114 C 
BRANCH  34  35
HETATM   35  C   UNK     0       6.607 -16.355  -8.606  0.00  0.00     0.139 C 
HETATM   36  O   UNK     0       6.468 -17.601  -8.783  0.00  0.00    -0.650 OA
BRANCH  35  37
HETATM   37  O   UNK     0       5.703 -15.731  -7.755  0.00  0.00    -0.776 OA
HETATM   38  H   UNK     0       5.948 -15.470  -6.814  0.00  0.00     0.167 HD
ENDBRANCH  35  37
ENDBRANCH  34  35
ENDBRANCH  33  34
ENDBRANCH   6  33
BRANCH  27  39
HETATM   39  C   UNK     0      11.244  -6.557  -6.890  0.00  0.00     0.051 C 
BRANCH  39  40
HETATM   40  C   UNK     0      12.294  -5.653  -7.361  0.00  0.00     0.114 C 
BRANCH  40  41
HETATM   41  C   UNK     0      12.116  -4.801  -8.515  0.00  0.00     0.139 C 
HETATM   42  O   UNK     0      12.921  -3.919  -8.845  0.00  0.00    -0.650 OA
BRANCH  41  43
HETATM   43  O   UNK     0      10.960  -4.972  -9.329  0.00  0.00    -0.776 OA
HETATM   44  H   UNK     0      11.088  -4.712 -10.299  0.00  0.00     0.167 HD
ENDBRANCH  41  43
ENDBRANCH  40  41
ENDBRANCH  39  40
ENDBRANCH  27  39
BRANCH  11  45
HETATM   45  C   UNK     0      10.138 -15.145  -1.379  0.00  0.00     0.051 C 
BRANCH  45  46
HETATM   46  C   UNK     0      11.520 -14.804  -0.957  0.00  0.00     0.114 C 
BRANCH  46  47
HETATM   47  C   UNK     0      12.435 -15.790  -1.600  0.00  0.00     0.139 C 
HETATM   48  O   UNK     0      13.252 -15.382  -2.437  0.00  0.00    -0.650 OA
BRANCH  47  49
HETATM   49  O   UNK     0      12.372 -17.122  -1.276  0.00  0.00    -0.776 OA
HETATM   50  H   UNK     0      13.179 -17.627  -0.891  0.00  0.00     0.167 HD
ENDBRANCH  47  49
ENDBRANCH  46  47
ENDBRANCH  45  46
ENDBRANCH  11  45
BRANCH  18  51
HETATM   51  C   UNK     0      13.463  -9.015  -1.753  0.00  0.00     0.051 C 
BRANCH  51  52
HETATM   52  C   UNK     0      14.645  -9.830  -2.255  0.00  0.00     0.114 C 
BRANCH  52  53
HETATM   53  C   UNK     0      15.417 -10.421  -1.145  0.00  0.00     0.139 C 
HETATM   54  O   UNK     0      15.311  -9.957   0.001  0.00  0.00    -0.650 OA
BRANCH  53  55
HETATM   55  O   UNK     0      16.255 -11.482  -1.388  0.00  0.00    -0.776 OA
HETATM   56  H   UNK     0      16.738 -12.014  -0.703  0.00  0.00     0.167 HD
ENDBRANCH  53  55
ENDBRANCH  52  53
ENDBRANCH  51  52
ENDBRANCH  18  51
TORSDOF 16
ENDMDL
MODEL 7
REMARK VINA RESULT:      -8.8      5.845     11.082
REMARK  16 active torsions:
REMARK  status: ('A' for Active; 'I' for Inactive)
REMARK    1  A    between atoms: C_6  and  C_7 
REMARK    2  A    between atoms: C_7  and  C_8 
REMARK    3  A    between atoms: C_8  and  C_9 
REMARK    4  A    between atoms: C_9  and  O_11 
REMARK    5  A    between atoms: C_16  and  C_17 
REMARK    6  A    between atoms: C_17  and  C_18 
REMARK    7  A    between atoms: C_18  and  C_19 
REMARK    8  A    between atoms: C_19  and  O_21 
REMARK    9  A    between atoms: C_28  and  C_29 
REMARK   10  A    between atoms: C_29  and  C_30 
REMARK   11  A    between atoms: C_30  and  C_31 
REMARK   12  A    between atoms: C_31  and  O_33 
REMARK   13  A    between atoms: C_42  and  C_43 
REMARK   14  A    between atoms: C_43  and  C_44 
REMARK   15  A    between atoms: C_44  and  C_45 
REMARK   16  A    between atoms: C_45  and  O_47 
ROOT
HETATM    1  C   UNK     0       9.945 -15.881  -4.622  0.00  0.00     0.051 C 
HETATM    2  C   UNK     0       8.599 -16.218  -5.232  0.00  0.00    -0.031 A 
HETATM    3  C   UNK     0       7.705 -15.396  -5.900  0.00  0.00     0.021 A 
HETATM    4  N   UNK     0       6.614 -16.119  -6.245  0.00  0.00    -0.361 N 
HETATM    5  C   UNK     0       6.796 -17.386  -5.819  0.00  0.00     0.022 A 
HETATM    6  C   UNK     0       8.027 -17.482  -5.178  0.00  0.00    -0.027 A 
HETATM    7  C   UNK     0       5.936 -18.594  -6.026  0.00  0.00     0.115 C 
HETATM    8  C   UNK     0       5.344 -18.778  -7.413  0.00  0.00     0.021 A 
HETATM    9  N   UNK     0       5.891 -18.482  -8.602  0.00  0.00    -0.361 N 
HETATM   10  C   UNK     0       4.971 -18.727  -9.559  0.00  0.00     0.022 A 
HETATM   11  C   UNK     0       3.803 -19.202  -8.971  0.00  0.00    -0.027 A 
HETATM   12  C   UNK     0       4.031 -19.237  -7.619  0.00  0.00    -0.031 A 
HETATM   13  C   UNK     0       3.036 -19.695  -6.576  0.00  0.00     0.051 C 
HETATM   14  C   UNK     0       5.138 -18.473 -11.055  0.00  0.00     0.115 C 
HETATM   15  C   UNK     0       5.391 -17.016 -11.407  0.00  0.00     0.021 A 
HETATM   16  N   UNK     0       6.398 -16.231 -10.982  0.00  0.00    -0.361 N 
HETATM   17  C   UNK     0       6.225 -14.997 -11.462  0.00  0.00     0.022 A 
HETATM   18  C   UNK     0       5.054 -14.980 -12.245  0.00  0.00    -0.027 A 
HETATM   19  C   UNK     0       4.541 -16.250 -12.204  0.00  0.00    -0.031 A 
HETATM   20  C   UNK     0       3.291 -16.681 -12.950  0.00  0.00     0.051 C 
HETATM   21  C   UNK     0       7.030 -13.740 -11.223  0.00  0.00     0.115 C 
HETATM   22  C   UNK     0       7.661 -13.564  -9.862  0.00  0.00     0.022 A 
HETATM   23  N   UNK     0       7.142 -13.854  -8.662  0.00  0.00    -0.361 N 
HETATM   24  C   UNK     0       8.101 -13.677  -7.731  0.00  0.00     0.021 A 
HETATM   25  C   UNK     0       9.263 -13.253  -8.346  0.00  0.00    -0.031 A 
HETATM   26  C   UNK     0      10.593 -12.886  -7.720  0.00  0.00     0.051 C 
HETATM   27  C   UNK     0       9.007 -13.173  -9.710  0.00  0.00    -0.027 A 
HETATM   28  C   UNK     0       8.016 -13.966  -6.243  0.00  0.00     0.115 C 
HETATM   29  H   UNK     0       5.705 -15.720  -6.752  0.00  0.00     0.165 HD
HETATM   30  H   UNK     0       6.944 -18.148  -8.773  0.00  0.00     0.165 HD
HETATM   31  H   UNK     0       7.276 -16.564 -10.370  0.00  0.00     0.165 HD
HETATM   32  H   UNK     0       6.079 -14.144  -8.456  0.00  0.00     0.165 HD
ENDROOT
BRANCH   6  33
HETATM   33  C   UNK     0       8.691 -18.668  -4.525  0.00  0.00     0.051 C 
BRANCH  33  34
HETATM   34  C   UNK     0       9.966 -19.032  -5.248  0.00  0.00     0.114 C 
BRANCH  34  35
HETATM   35  C   UNK     0       9.590 -19.485  -6.617  0.00  0.00     0.139 C 
HETATM   36  O   UNK     0      10.200 -19.031  -7.629  0.00  0.00    -0.650 OA
BRANCH  35  37
HETATM   37  O   UNK     0       8.577 -20.408  -6.850  0.00  0.00    -0.776 OA
HETATM   38  H   UNK     0       8.219 -20.587  -7.774  0.00  0.00     0.167 HD
ENDBRANCH  35  37
ENDBRANCH  34  35
ENDBRANCH  33  34
ENDBRANCH   6  33
BRANCH  27  39
HETATM   39  C   UNK     0      10.007 -12.680 -10.695  0.00  0.00     0.051 C 
BRANCH  39  40
HETATM   40  C   UNK     0      10.102 -11.238 -10.926  0.00  0.00     0.114 C 
BRANCH  40  41
HETATM   41  C   UNK     0      11.191 -10.444 -10.404  0.00  0.00     0.139 C 
HETATM   42  O   UNK     0      12.384 -10.690 -10.626  0.00  0.00    -0.650 OA
BRANCH  41  43
HETATM   43  O   UNK     0      10.893  -9.315  -9.589  0.00  0.00    -0.776 OA
HETATM   44  H   UNK     0      11.606  -8.595  -9.594  0.00  0.00     0.167 HD
ENDBRANCH  41  43
ENDBRANCH  40  41
ENDBRANCH  39  40
ENDBRANCH  27  39
BRANCH  11  45
HETATM   45  C   UNK     0       2.516 -19.614  -9.633  0.00  0.00     0.051 C 
BRANCH  45  46
HETATM   46  C   UNK     0       1.507 -18.528  -9.726  0.00  0.00     0.114 C 
BRANCH  46  47
HETATM   47  C   UNK     0       0.477 -18.965 -10.712  0.00  0.00     0.139 C 
HETATM   48  O   UNK     0       0.789 -19.019 -11.910  0.00  0.00    -0.650 OA
BRANCH  47  49
HETATM   49  O   UNK     0      -0.789 -19.300 -10.304  0.00  0.00    -0.776 OA
HETATM   50  H   UNK     0      -1.200 -20.221 -10.499  0.00  0.00     0.167 HD
ENDBRANCH  47  49
ENDBRANCH  46  47
ENDBRANCH  45  46
ENDBRANCH  11  45
BRANCH  18  51
HETATM   51  C   UNK     0       4.467 -13.821 -13.008  0.00  0.00     0.051 C 
BRANCH  51  52
HETATM   52  C   UNK     0       5.062 -13.886 -14.407  0.00  0.00     0.114 C 
BRANCH  52  53
HETATM   53  C   UNK     0       4.254 -13.132 -15.384  0.00  0.00     0.139 C 
HETATM   54  O   UNK     0       3.983 -11.938 -15.178  0.00  0.00    -0.650 OA
BRANCH  53  55
HETATM   55  O   UNK     0       3.801 -13.759 -16.520  0.00  0.00    -0.776 OA
HETATM   56  H   UNK     0       3.952 -14.710 -16.761  0.00  0.00     0.167 HD
ENDBRANCH  53  55
ENDBRANCH  52  53
ENDBRANCH  51  52
ENDBRANCH  18  51
TORSDOF 16
ENDMDL
MODEL 8
REMARK VINA RESULT:      -8.4     21.060     22.991
REMARK  16 active torsions:
REMARK  status: ('A' for Active; 'I' for Inactive)
REMARK    1  A    between atoms: C_6  and  C_7 
REMARK    2  A    between atoms: C_7  and  C_8 
REMARK    3  A    between atoms: C_8  and  C_9 
REMARK    4  A    between atoms: C_9  and  O_11 
REMARK    5  A    between atoms: C_16  and  C_17 
REMARK    6  A    between atoms: C_17  and  C_18 
REMARK    7  A    between atoms: C_18  and  C_19 
REMARK    8  A    between atoms: C_19  and  O_21 
REMARK    9  A    between atoms: C_28  and  C_29 
REMARK   10  A    between atoms: C_29  and  C_30 
REMARK   11  A    between atoms: C_30  and  C_31 
REMARK   12  A    between atoms: C_31  and  O_33 
REMARK   13  A    between atoms: C_42  and  C_43 
REMARK   14  A    between atoms: C_43  and  C_44 
REMARK   15  A    between atoms: C_44  and  C_45 
REMARK   16  A    between atoms: C_45  and  O_47 
ROOT
HETATM    1  C   UNK     0      -6.551  -4.853   5.769  0.00  0.00     0.051 C 
HETATM    2  C   UNK     0      -7.718  -4.379   4.927  0.00  0.00    -0.031 A 
HETATM    3  C   UNK     0      -7.712  -3.680   3.730  0.00  0.00     0.021 A 
HETATM    4  N   UNK     0      -8.991  -3.441   3.352  0.00  0.00    -0.361 N 
HETATM    5  C   UNK     0      -9.811  -3.981   4.278  0.00  0.00     0.022 A 
HETATM    6  C   UNK     0      -9.047  -4.573   5.278  0.00  0.00    -0.027 A 
HETATM    7  C   UNK     0     -11.305  -4.076   4.286  0.00  0.00     0.115 C 
HETATM    8  C   UNK     0     -11.971  -4.452   2.974  0.00  0.00     0.021 A 
HETATM    9  N   UNK     0     -11.534  -5.295   2.026  0.00  0.00    -0.361 N 
HETATM   10  C   UNK     0     -12.403  -5.251   0.994  0.00  0.00     0.022 A 
HETATM   11  C   UNK     0     -13.433  -4.363   1.289  0.00  0.00    -0.027 A 
HETATM   12  C   UNK     0     -13.167  -3.856   2.536  0.00  0.00    -0.031 A 
HETATM   13  C   UNK     0     -14.025  -2.852   3.272  0.00  0.00     0.051 C 
HETATM   14  C   UNK     0     -12.269  -6.001  -0.329  0.00  0.00     0.115 C 
HETATM   15  C   UNK     0     -11.023  -5.637  -1.120  0.00  0.00     0.021 A 
HETATM   16  N   UNK     0      -9.740  -5.745  -0.726  0.00  0.00    -0.361 N 
HETATM   17  C   UNK     0      -8.946  -5.256  -1.681  0.00  0.00     0.022 A 
HETATM   18  C   UNK     0      -9.749  -4.817  -2.752  0.00  0.00    -0.027 A 
HETATM   19  C   UNK     0     -11.048  -5.063  -2.389  0.00  0.00    -0.031 A 
HETATM   20  C   UNK     0     -12.243  -4.771  -3.278  0.00  0.00     0.051 C 
HETATM   21  C   UNK     0      -7.444  -5.081  -1.701  0.00  0.00     0.115 C 
HETATM   22  C   UNK     0      -6.763  -4.750  -0.394  0.00  0.00     0.022 A 
HETATM   23  N   UNK     0      -7.177  -3.919   0.570  0.00  0.00    -0.361 N 
HETATM   24  C   UNK     0      -6.339  -4.037   1.620  0.00  0.00     0.021 A 
HETATM   25  C   UNK     0      -5.355  -4.959   1.320  0.00  0.00    -0.031 A 
HETATM   26  C   UNK     0      -4.173  -5.399   2.158  0.00  0.00     0.051 C 
HETATM   27  C   UNK     0      -5.605  -5.430   0.036  0.00  0.00    -0.027 A 
HETATM   28  C   UNK     0      -6.450  -3.366   2.978  0.00  0.00     0.115 C 
HETATM   29  H   UNK     0      -9.305  -2.859   2.455  0.00  0.00     0.165 HD
HETATM   30  H   UNK     0     -10.639  -5.959   2.102  0.00  0.00     0.165 HD
HETATM   31  H   UNK     0      -9.384  -6.220   0.225  0.00  0.00     0.165 HD
HETATM   32  H   UNK     0      -8.041  -3.208   0.503  0.00  0.00     0.165 HD
ENDROOT
BRANCH   6  33
HETATM   33  C   UNK     0      -9.480  -5.297   6.528  0.00  0.00     0.051 C 
BRANCH  33  34
HETATM   34  C   UNK     0      -9.662  -4.328   7.672  0.00  0.00     0.114 C 
BRANCH  34  35
HETATM   35  C   UNK     0     -11.022  -4.558   8.239  0.00  0.00     0.139 C 
HETATM   36  O   UNK     0     -11.911  -5.136   7.548  0.00  0.00    -0.650 OA
BRANCH  35  37
HETATM   37  O   UNK     0     -11.376  -4.162   9.523  0.00  0.00    -0.776 OA
HETATM   38  H   UNK     0     -10.697  -4.080  10.263  0.00  0.00     0.167 HD
ENDBRANCH  35  37
ENDBRANCH  34  35
ENDBRANCH  33  34
ENDBRANCH   6  33
BRANCH  27  39
HETATM   39  C   UNK     0      -4.710  -6.392  -0.664  0.00  0.00     0.051 C 
BRANCH  39  40
HETATM   40  C   UNK     0      -3.931  -5.911  -1.804  0.00  0.00     0.114 C 
BRANCH  40  41
HETATM   41  C   UNK     0      -4.094  -6.456  -3.133  0.00  0.00     0.139 C 
HETATM   42  O   UNK     0      -4.105  -7.670  -3.378  0.00  0.00    -0.650 OA
BRANCH  41  43
HETATM   43  O   UNK     0      -4.251  -5.564  -4.232  0.00  0.00    -0.776 OA
HETATM   44  H   UNK     0      -3.398  -5.377  -4.745  0.00  0.00     0.167 HD
ENDBRANCH  41  43
ENDBRANCH  40  41
ENDBRANCH  39  40
ENDBRANCH  27  39
BRANCH  11  45
HETATM   45  C   UNK     0     -14.627  -3.994   0.452  0.00  0.00     0.051 C 
BRANCH  45  46
HETATM   46  C   UNK     0     -14.328  -3.032  -0.640  0.00  0.00     0.114 C 
BRANCH  46  47
HETATM   47  C   UNK     0     -15.634  -2.568  -1.189  0.00  0.00     0.139 C 
HETATM   48  O   UNK     0     -15.905  -1.360  -1.132  0.00  0.00    -0.650 OA
BRANCH  47  49
HETATM   49  O   UNK     0     -16.519  -3.457  -1.745  0.00  0.00    -0.776 OA
HETATM   50  H   UNK     0     -16.213  -4.347  -2.154  0.00  0.00     0.167 HD
ENDBRANCH  47  49
ENDBRANCH  46  47
ENDBRANCH  45  46
ENDBRANCH  11  45
BRANCH  18  51
HETATM   51  C   UNK     0      -9.302  -4.216  -4.060  0.00  0.00     0.051 C 
BRANCH  51  52
HETATM   52  C   UNK     0      -8.612  -5.333  -4.829  0.00  0.00     0.114 C 
BRANCH  52  53
HETATM   53  C   UNK     0      -7.312  -4.902  -5.376  0.00  0.00     0.139 C 
HETATM   54  O   UNK     0      -6.716  -5.615  -6.198  0.00  0.00    -0.650 OA
BRANCH  53  55
HETATM   55  O   UNK     0      -6.764  -3.710  -4.967  0.00  0.00    -0.776 OA
HETATM   56  H   UNK     0      -6.325  -3.538  -4.093  0.00  0.00     0.167 HD
ENDBRANCH  53  55
ENDBRANCH  52  53
ENDBRANCH  51  52
ENDBRANCH  18  51
TORSDOF 16
ENDMDL
MODEL 9
REMARK VINA RESULT:      -8.4      2.844      7.316
REMARK  16 active torsions:
REMARK  status: ('A' for Active; 'I' for Inactive)
REMARK    1  A    between atoms: C_6  and  C_7 
REMARK    2  A    between atoms: C_7  and  C_8 
REMARK    3  A    between atoms: C_8  and  C_9 
REMARK    4  A    between atoms: C_9  and  O_11 
REMARK    5  A    between atoms: C_16  and  C_17 
REMARK    6  A    between atoms: C_17  and  C_18 
REMARK    7  A    between atoms: C_18  and  C_19 
REMARK    8  A    between atoms: C_19  and  O_21 
REMARK    9  A    between atoms: C_28  and  C_29 
REMARK   10  A    between atoms: C_29  and  C_30 
REMARK   11  A    between atoms: C_30  and  C_31 
REMARK   12  A    between atoms: C_31  and  O_33 
REMARK   13  A    between atoms: C_42  and  C_43 
REMARK   14  A    between atoms: C_43  and  C_44 
REMARK   15  A    between atoms: C_44  and  C_45 
REMARK   16  A    between atoms: C_45  and  O_47 
ROOT
HETATM    1  C   UNK     0      10.411 -16.114  -0.906  0.00  0.00     0.051 C 
HETATM    2  C   UNK     0       9.879 -15.438  -2.154  0.00  0.00    -0.031 A 
HETATM    3  C   UNK     0       9.375 -14.157  -2.313  0.00  0.00     0.021 A 
HETATM    4  N   UNK     0       8.986 -13.993  -3.600  0.00  0.00    -0.361 N 
HETATM    5  C   UNK     0       9.240 -15.138  -4.266  0.00  0.00     0.022 A 
HETATM    6  C   UNK     0       9.796 -16.065  -3.390  0.00  0.00    -0.027 A 
HETATM    7  C   UNK     0       9.084 -15.447  -5.722  0.00  0.00     0.115 C 
HETATM    8  C   UNK     0       9.533 -14.374  -6.698  0.00  0.00     0.021 A 
HETATM    9  N   UNK     0      10.567 -13.525  -6.590  0.00  0.00    -0.361 N 
HETATM   10  C   UNK     0      10.533 -12.686  -7.647  0.00  0.00     0.022 A 
HETATM   11  C   UNK     0       9.453 -13.009  -8.463  0.00  0.00    -0.027 A 
HETATM   12  C   UNK     0       8.819 -14.072  -7.871  0.00  0.00    -0.031 A 
HETATM   13  C   UNK     0       7.589 -14.767  -8.411  0.00  0.00     0.051 C 
HETATM   14  C   UNK     0      11.481 -11.518  -7.901  0.00  0.00     0.115 C 
HETATM   15  C   UNK     0      11.450 -10.453  -6.817  0.00  0.00     0.021 A 
HETATM   16  N   UNK     0      11.709 -10.608  -5.505  0.00  0.00    -0.361 N 
HETATM   17  C   UNK     0      11.505  -9.448  -4.877  0.00  0.00     0.022 A 
HETATM   18  C   UNK     0      11.102  -8.488  -5.827  0.00  0.00    -0.027 A 
HETATM   19  C   UNK     0      11.072  -9.130  -7.038  0.00  0.00    -0.031 A 
HETATM   20  C   UNK     0      10.721  -8.446  -8.347  0.00  0.00     0.051 C 
HETATM   21  C   UNK     0      11.586  -9.112  -3.405  0.00  0.00     0.115 C 
HETATM   22  C   UNK     0      11.184 -10.186  -2.422  0.00  0.00     0.022 A 
HETATM   23  N   UNK     0      10.162 -11.048  -2.505  0.00  0.00    -0.361 N 
HETATM   24  C   UNK     0      10.262 -11.923  -1.484  0.00  0.00     0.021 A 
HETATM   25  C   UNK     0      11.368 -11.610  -0.719  0.00  0.00    -0.031 A 
HETATM   26  C   UNK     0      11.870 -12.274   0.547  0.00  0.00     0.051 C 
HETATM   27  C   UNK     0      11.975 -10.502  -1.299  0.00  0.00    -0.027 A 
HETATM   28  C   UNK     0       9.389 -13.135  -1.212  0.00  0.00     0.115 C 
HETATM   29  H   UNK     0       8.499 -13.082  -4.019  0.00  0.00     0.165 HD
HETATM   30  H   UNK     0      11.352 -13.548  -5.795  0.00  0.00     0.165 HD
HETATM   31  H   UNK     0      12.091 -11.543  -5.019  0.00  0.00     0.165 HD
HETATM   32  H   UNK     0       9.336 -11.020  -3.262  0.00  0.00     0.165 HD
ENDROOT
BRANCH   6  33
HETATM   33  C   UNK     0      10.247 -17.483  -3.636  0.00  0.00     0.051 C 
BRANCH  33  34
HETATM   34  C   UNK     0       9.074 -18.433  -3.587  0.00  0.00     0.114 C 
BRANCH  34  35
HETATM   35  C   UNK     0       8.892 -18.989  -4.958  0.00  0.00     0.139 C 
HETATM   36  O   UNK     0       9.892 -19.155  -5.716  0.00  0.00    -0.650 OA
BRANCH  35  37
HETATM   37  O   UNK     0       7.648 -19.349  -5.463  0.00  0.00    -0.776 OA
HETATM   38  H   UNK     0       6.802 -19.236  -4.928  0.00  0.00     0.167 HD
ENDBRANCH  35  37
ENDBRANCH  34  35
ENDBRANCH  33  34
ENDBRANCH   6  33
BRANCH  27  39
HETATM   39  C   UNK     0      13.164  -9.828  -0.710  0.00  0.00     0.051 C 
BRANCH  39  40
HETATM   40  C   UNK     0      14.401  -9.795  -1.491  0.00  0.00     0.114 C 
BRANCH  40  41
HETATM   41  C   UNK     0      14.978 -10.987  -2.071  0.00  0.00     0.139 C 
HETATM   42  O   UNK     0      15.870 -11.650  -1.524  0.00  0.00    -0.650 OA
BRANCH  41  43
HETATM   43  O   UNK     0      14.508 -11.437  -3.338  0.00  0.00    -0.776 OA
HETATM   44  H   UNK     0      15.156 -12.035  -3.836  0.00  0.00     0.167 HD
ENDBRANCH  41  43
ENDBRANCH  40  41
ENDBRANCH  39  40
ENDBRANCH  27  39
BRANCH  11  45
HETATM   45  C   UNK     0       9.018 -12.362  -9.750  0.00  0.00     0.051 C 
BRANCH  45  46
HETATM   46  C   UNK     0       9.879 -12.691 -10.915  0.00  0.00     0.114 C 
BRANCH  46  47
HETATM   47  C   UNK     0      10.888 -11.601 -11.040  0.00  0.00     0.139 C 
HETATM   48  O   UNK     0      10.489 -10.436 -11.177  0.00  0.00    -0.650 OA
BRANCH  47  49
HETATM   49  O   UNK     0      12.231 -11.880 -11.006  0.00  0.00    -0.776 OA
HETATM   50  H   UNK     0      12.738 -12.223 -11.831  0.00  0.00     0.167 HD
ENDBRANCH  47  49
ENDBRANCH  46  47
ENDBRANCH  45  46
ENDBRANCH  11  45
BRANCH  18  51
HETATM   51  C   UNK     0      10.782  -7.034  -5.596  0.00  0.00     0.051 C 
BRANCH  51  52
HETATM   52  C   UNK     0      11.948  -6.245  -6.174  0.00  0.00     0.114 C 
BRANCH  52  53
HETATM   53  C   UNK     0      11.501  -5.264  -7.182  0.00  0.00     0.139 C 
HETATM   54  O   UNK     0      10.489  -4.576  -6.974  0.00  0.00    -0.650 OA
BRANCH  53  55
HETATM   55  O   UNK     0      12.210  -5.119  -8.350  0.00  0.00    -0.776 OA
HETATM   56  H   UNK     0      11.836  -5.163  -9.269  0.00  0.00     0.167 HD
ENDBRANCH  53  55
ENDBRANCH  52  53
ENDBRANCH  51  52
ENDBRANCH  18  51
TORSDOF 16
ENDMDL
MODEL 10
REMARK VINA RESULT:      -8.1      2.263      7.951
REMARK  16 active torsions:
REMARK  status: ('A' for Active; 'I' for Inactive)
REMARK    1  A    between atoms: C_6  and  C_7 
REMARK    2  A    between atoms: C_7  and  C_8 
REMARK    3  A    between atoms: C_8  and  C_9 
REMARK    4  A    between atoms: C_9  and  O_11 
REMARK    5  A    between atoms: C_16  and  C_17 
REMARK    6  A    between atoms: C_17  and  C_18 
REMARK    7  A    between atoms: C_18  and  C_19 
REMARK    8  A    between atoms: C_19  and  O_21 
REMARK    9  A    between atoms: C_28  and  C_29 
REMARK   10  A    between atoms: C_29  and  C_30 
REMARK   11  A    between atoms: C_30  and  C_31 
REMARK   12  A    between atoms: C_31  and  O_33 
REMARK   13  A    between atoms: C_42  and  C_43 
REMARK   14  A    between atoms: C_43  and  C_44 
REMARK   15  A    between atoms: C_44  and  C_45 
REMARK   16  A    between atoms: C_45  and  O_47 
ROOT
HETATM    1  C   UNK     0       9.059 -12.301 -10.502  0.00  0.00     0.051 C 
HETATM    2  C   UNK     0       9.613 -12.654  -9.136  0.00  0.00    -0.031 A 
HETATM    3  C   UNK     0      10.803 -12.262  -8.541  0.00  0.00     0.021 A 
HETATM    4  N   UNK     0      10.900 -12.846  -7.323  0.00  0.00    -0.361 N 
HETATM    5  C   UNK     0       9.794 -13.594  -7.125  0.00  0.00     0.022 A 
HETATM    6  C   UNK     0       8.970 -13.498  -8.241  0.00  0.00    -0.027 A 
HETATM    7  C   UNK     0       9.369 -14.361  -5.912  0.00  0.00     0.115 C 
HETATM    8  C   UNK     0       9.570 -13.680  -4.570  0.00  0.00     0.021 A 
HETATM    9  N   UNK     0       9.451 -12.378  -4.267  0.00  0.00    -0.361 N 
HETATM   10  C   UNK     0       9.812 -12.214  -2.976  0.00  0.00     0.022 A 
HETATM   11  C   UNK     0      10.164 -13.445  -2.431  0.00  0.00    -0.027 A 
HETATM   12  C   UNK     0      10.013 -14.373  -3.430  0.00  0.00    -0.031 A 
HETATM   13  C   UNK     0      10.278 -15.856  -3.292  0.00  0.00     0.051 C 
HETATM   14  C   UNK     0       9.891 -10.888  -2.224  0.00  0.00     0.115 C 
HETATM   15  C   UNK     0      10.879  -9.899  -2.821  0.00  0.00     0.021 A 
HETATM   16  N   UNK     0      10.883  -9.394  -4.069  0.00  0.00    -0.361 N 
HETATM   17  C   UNK     0      11.956  -8.615  -4.223  0.00  0.00     0.022 A 
HETATM   18  C   UNK     0      12.680  -8.604  -3.014  0.00  0.00    -0.027 A 
HETATM   19  C   UNK     0      11.994  -9.411  -2.144  0.00  0.00    -0.031 A 
HETATM   20  C   UNK     0      12.414  -9.650  -0.705  0.00  0.00     0.051 C 
HETATM   21  C   UNK     0      12.455  -7.879  -5.445  0.00  0.00     0.115 C 
HETATM   22  C   UNK     0      12.223  -8.524  -6.791  0.00  0.00     0.022 A 
HETATM   23  N   UNK     0      12.330  -9.818  -7.121  0.00  0.00    -0.361 N 
HETATM   24  C   UNK     0      11.891  -9.970  -8.387  0.00  0.00     0.021 A 
HETATM   25  C   UNK     0      11.502  -8.742  -8.888  0.00  0.00    -0.031 A 
HETATM   26  C   UNK     0      10.981  -8.397 -10.268  0.00  0.00     0.051 C 
HETATM   27  C   UNK     0      11.705  -7.801  -7.885  0.00  0.00    -0.027 A 
HETATM   28  C   UNK     0      11.734 -11.263  -9.167  0.00  0.00     0.115 C 
HETATM   29  H   UNK     0      11.767 -12.757  -6.629  0.00  0.00     0.165 HD
HETATM   30  H   UNK     0       9.065 -11.580  -4.947  0.00  0.00     0.165 HD
HETATM   31  H   UNK     0      10.088  -9.553  -4.843  0.00  0.00     0.165 HD
HETATM   32  H   UNK     0      12.757 -10.630  -6.477  0.00  0.00     0.165 HD
ENDROOT
BRANCH   6  33
HETATM   33  C   UNK     0       7.635 -14.142  -8.519  0.00  0.00     0.051 C 
BRANCH  33  34
HETATM   34  C   UNK     0       7.817 -15.494  -9.166  0.00  0.00     0.114 C 
BRANCH  34  35
HETATM   35  C   UNK     0       6.469 -16.120  -9.281  0.00  0.00     0.139 C 
HETATM   36  O   UNK     0       5.644 -16.036  -8.325  0.00  0.00    -0.650 OA
BRANCH  35  37
HETATM   37  O   UNK     0       6.056 -16.808 -10.416  0.00  0.00    -0.776 OA
HETATM   38  H   UNK     0       5.192 -16.595 -10.886  0.00  0.00     0.167 HD
ENDBRANCH  35  37
ENDBRANCH  34  35
ENDBRANCH  33  34
ENDBRANCH   6  33
BRANCH  27  39
HETATM   39  C   UNK     0      11.466  -6.345  -8.079  0.00  0.00     0.051 C 
BRANCH  39  40
HETATM   40  C   UNK     0      11.710  -5.445  -6.952  0.00  0.00     0.114 C 
BRANCH  40  41
HETATM   41  C   UNK     0      10.642  -4.963  -6.106  0.00  0.00     0.139 C 
HETATM   42  O   UNK     0       9.880  -4.041  -6.425  0.00  0.00    -0.650 OA
BRANCH  41  43
HETATM   43  O   UNK     0      10.442  -5.570  -4.833  0.00  0.00    -0.776 OA
HETATM   44  H   UNK     0      11.155  -5.352  -4.148  0.00  0.00     0.167 HD
ENDBRANCH  41  43
ENDBRANCH  40  41
ENDBRANCH  39  40
ENDBRANCH  27  39
BRANCH  11  45
HETATM   45  C   UNK     0      10.622 -13.759  -1.032  0.00  0.00     0.051 C 
BRANCH  45  46
HETATM   46  C   UNK     0       9.580 -13.556   0.007  0.00  0.00     0.114 C 
BRANCH  46  47
HETATM   47  C   UNK     0      10.224 -12.840   1.144  0.00  0.00     0.139 C 
HETATM   48  O   UNK     0      11.308 -12.272   0.949  0.00  0.00    -0.650 OA
BRANCH  47  49
HETATM   49  O   UNK     0       9.632 -12.809   2.382  0.00  0.00    -0.776 OA
HETATM   50  H   UNK     0       8.663 -13.117   2.530  0.00  0.00     0.167 HD
ENDBRANCH  47  49
ENDBRANCH  46  47
ENDBRANCH  45  46
ENDBRANCH  11  45
BRANCH  18  51
HETATM   51  C   UNK     0      13.945  -7.848  -2.699  0.00  0.00     0.051 C 
BRANCH  51  52
HETATM   52  C   UNK     0      13.532  -6.401  -2.475  0.00  0.00     0.114 C 
BRANCH  52  53
HETATM   53  C   UNK     0      14.628  -5.462  -2.783  0.00  0.00     0.139 C 
HETATM   54  O   UNK     0      15.065  -5.376  -3.942  0.00  0.00    -0.650 OA
BRANCH  53  55
HETATM   55  O   UNK     0      15.163  -4.690  -1.782  0.00  0.00    -0.776 OA
HETATM   56  H   UNK     0      15.866  -4.971  -1.139  0.00  0.00     0.167 HD
ENDBRANCH  53  55
ENDBRANCH  52  53
ENDBRANCH  51  52
ENDBRANCH  18  51
TORSDOF 16
ENDMDL
MODEL 11
REMARK VINA RESULT:      -8.0     25.225     30.884
REMARK  16 active torsions:
REMARK  status: ('A' for Active; 'I' for Inactive)
REMARK    1  A    between atoms: C_6  and  C_7 
REMARK    2  A    between atoms: C_7  and  C_8 
REMARK    3  A    between atoms: C_8  and  C_9 
REMARK    4  A    between atoms: C_9  and  O_11 
REMARK    5  A    between atoms: C_16  and  C_17 
REMARK    6  A    between atoms: C_17  and  C_18 
REMARK    7  A    between atoms: C_18  and  C_19 
REMARK    8  A    between atoms: C_19  and  O_21 
REMARK    9  A    between atoms: C_28  and  C_29 
REMARK   10  A    between atoms: C_29  and  C_30 
REMARK   11  A    between atoms: C_30  and  C_31 
REMARK   12  A    between atoms: C_31  and  O_33 
REMARK   13  A    between atoms: C_42  and  C_43 
REMARK   14  A    between atoms: C_43  and  C_44 
REMARK   15  A    between atoms: C_44  and  C_45 
REMARK   16  A    between atoms: C_45  and  O_47 
ROOT
HETATM    1  C   UNK     0      20.048  15.600  -6.201  0.00  0.00     0.051 C 
HETATM    2  C   UNK     0      18.632  16.130  -6.116  0.00  0.00    -0.031 A 
HETATM    3  C   UNK     0      18.171  17.432  -6.229  0.00  0.00     0.021 A 
HETATM    4  N   UNK     0      16.828  17.442  -6.054  0.00  0.00    -0.361 N 
HETATM    5  C   UNK     0      16.422  16.174  -5.841  0.00  0.00     0.022 A 
HETATM    6  C   UNK     0      17.525  15.327  -5.870  0.00  0.00    -0.027 A 
HETATM    7  C   UNK     0      15.035  15.632  -5.685  0.00  0.00     0.115 C 
HETATM    8  C   UNK     0      13.980  16.178  -6.631  0.00  0.00     0.021 A 
HETATM    9  N   UNK     0      14.115  16.535  -7.918  0.00  0.00    -0.361 N 
HETATM   10  C   UNK     0      12.939  17.052  -8.334  0.00  0.00     0.022 A 
HETATM   11  C   UNK     0      12.019  17.018  -7.290  0.00  0.00    -0.027 A 
HETATM   12  C   UNK     0      12.668  16.468  -6.214  0.00  0.00    -0.031 A 
HETATM   13  C   UNK     0      12.056  16.228  -4.853  0.00  0.00     0.051 C 
HETATM   14  C   UNK     0      12.653  17.645  -9.711  0.00  0.00     0.115 C 
HETATM   15  C   UNK     0      13.517  18.847 -10.055  0.00  0.00     0.021 A 
HETATM   16  N   UNK     0      14.860  18.903 -10.115  0.00  0.00    -0.361 N 
HETATM   17  C   UNK     0      15.236  20.156 -10.382  0.00  0.00     0.022 A 
HETATM   18  C   UNK     0      14.081  20.953 -10.510  0.00  0.00    -0.027 A 
HETATM   19  C   UNK     0      13.011  20.122 -10.305  0.00  0.00    -0.031 A 
HETATM   20  C   UNK     0      11.564  20.571 -10.390  0.00  0.00     0.051 C 
HETATM   21  C   UNK     0      16.620  20.755 -10.481  0.00  0.00     0.115 C 
HETATM   22  C   UNK     0      17.691  20.192  -9.577  0.00  0.00     0.022 A 
HETATM   23  N   UNK     0      17.584  19.823  -8.294  0.00  0.00    -0.361 N 
HETATM   24  C   UNK     0      18.742  19.240  -7.923  0.00  0.00     0.021 A 
HETATM   25  C   UNK     0      19.619  19.243  -8.990  0.00  0.00    -0.031 A 
HETATM   26  C   UNK     0      21.047  18.740  -9.052  0.00  0.00     0.051 C 
HETATM   27  C   UNK     0      18.969  19.847 -10.060  0.00  0.00    -0.027 A 
HETATM   28  C   UNK     0      19.067  18.582  -6.593  0.00  0.00     0.115 C 
HETATM   29  H   UNK     0      16.182  18.350  -6.043  0.00  0.00     0.165 HD
HETATM   30  H   UNK     0      15.023  16.378  -8.549  0.00  0.00     0.165 HD
HETATM   31  H   UNK     0      15.558  18.031 -10.015  0.00  0.00     0.165 HD
HETATM   32  H   UNK     0      16.705  20.010  -7.624  0.00  0.00     0.165 HD
ENDROOT
BRANCH   6  33
HETATM   33  C   UNK     0      17.607  13.833  -5.683  0.00  0.00     0.051 C 
BRANCH  33  34
HETATM   34  C   UNK     0      17.235  13.113  -6.957  0.00  0.00     0.114 C 
BRANCH  34  35
HETATM   35  C   UNK     0      16.618  11.811  -6.571  0.00  0.00     0.139 C 
HETATM   36  O   UNK     0      16.677  11.410  -5.372  0.00  0.00    -0.650 OA
BRANCH  35  37
HETATM   37  O   UNK     0      15.961  10.994  -7.482  0.00  0.00    -0.776 OA
HETATM   38  H   UNK     0      16.447  10.295  -8.021  0.00  0.00     0.167 HD
ENDBRANCH  35  37
ENDBRANCH  34  35
ENDBRANCH  33  34
ENDBRANCH   6  33
BRANCH  27  39
HETATM   39  C   UNK     0      19.627  20.095 -11.372  0.00  0.00     0.051 C 
BRANCH  39  40
HETATM   40  C   UNK     0      20.453  21.294 -11.518  0.00  0.00     0.114 C 
BRANCH  40  41
HETATM   41  C   UNK     0      21.730  21.271 -12.196  0.00  0.00     0.139 C 
HETATM   42  O   UNK     0      22.674  22.015 -11.899  0.00  0.00    -0.650 OA
BRANCH  41  43
HETATM   43  O   UNK     0      21.929  20.352 -13.265  0.00  0.00    -0.776 OA
HETATM   44  H   UNK     0      21.144  20.271 -13.900  0.00  0.00     0.167 HD
ENDBRANCH  41  43
ENDBRANCH  40  41
ENDBRANCH  39  40
ENDBRANCH  27  39
BRANCH  11  45
HETATM   45  C   UNK     0      10.585  17.474  -7.283  0.00  0.00     0.051 C 
BRANCH  45  46
HETATM   46  C   UNK     0      10.416  18.938  -7.097  0.00  0.00     0.114 C 
BRANCH  46  47
HETATM   47  C   UNK     0       9.167  19.141  -6.309  0.00  0.00     0.139 C 
HETATM   48  O   UNK     0       9.228  19.069  -5.073  0.00  0.00    -0.650 OA
BRANCH  47  49
HETATM   49  O   UNK     0       7.975  19.402  -6.936  0.00  0.00    -0.776 OA
HETATM   50  H   UNK     0       7.071  19.262  -6.469  0.00  0.00     0.167 HD
ENDBRANCH  47  49
ENDBRANCH  46  47
ENDBRANCH  45  46
ENDBRANCH  11  45
BRANCH  18  51
HETATM   51  C   UNK     0      14.001  22.423 -10.833  0.00  0.00     0.051 C 
BRANCH  51  52
HETATM   52  C   UNK     0      13.179  22.535 -12.108  0.00  0.00     0.114 C 
BRANCH  52  53
HETATM   53  C   UNK     0      14.034  22.620 -13.308  0.00  0.00     0.139 C 
HETATM   54  O   UNK     0      14.593  23.690 -13.598  0.00  0.00    -0.650 OA
BRANCH  53  55
HETATM   55  O   UNK     0      14.204  21.512 -14.101  0.00  0.00    -0.776 OA
HETATM   56  H   UNK     0      13.487  20.894 -14.401  0.00  0.00     0.167 HD
ENDBRANCH  53  55
ENDBRANCH  52  53
ENDBRANCH  51  52
ENDBRANCH  18  51
TORSDOF 16
ENDMDL
MODEL 12
REMARK VINA RESULT:      -8.0     21.283     23.351
REMARK  16 active torsions:
REMARK  status: ('A' for Active; 'I' for Inactive)
REMARK    1  A    between atoms: C_6  and  C_7 
REMARK    2  A    between atoms: C_7  and  C_8 
REMARK    3  A    between atoms: C_8  and  C_9 
REMARK    4  A    between atoms: C_9  and  O_11 
REMARK    5  A    between atoms: C_16  and  C_17 
REMARK    6  A    between atoms: C_17  and  C_18 
REMARK    7  A    between atoms: C_18  and  C_19 
REMARK    8  A    between atoms: C_19  and  O_21 
REMARK    9  A    between atoms: C_28  and  C_29 
REMARK   10  A    between atoms: C_29  and  C_30 
REMARK   11  A    between atoms: C_30  and  C_31 
REMARK   12  A    between atoms: C_31  and  O_33 
REMARK   13  A    between atoms: C_42  and  C_43 
REMARK   14  A    between atoms: C_43  and  C_44 
REMARK   15  A    between atoms: C_44  and  C_45 
REMARK   16  A    between atoms: C_45  and  O_47 
ROOT
HETATM    1  C   UNK     0      -8.496  -3.675   4.354  0.00  0.00     0.051 C 
HETATM    2  C   UNK     0      -9.463  -3.597   3.191  0.00  0.00    -0.031 A 
HETATM    3  C   UNK     0      -9.227  -3.242   1.872  0.00  0.00     0.021 A 
HETATM    4  N   UNK     0     -10.395  -3.281   1.188  0.00  0.00    -0.361 N 
HETATM    5  C   UNK     0     -11.369  -3.662   2.040  0.00  0.00     0.022 A 
HETATM    6  C   UNK     0     -10.822  -3.865   3.303  0.00  0.00    -0.027 A 
HETATM    7  C   UNK     0     -12.813  -3.948   1.769  0.00  0.00     0.115 C 
HETATM    8  C   UNK     0     -13.127  -4.739   0.511  0.00  0.00     0.021 A 
HETATM    9  N   UNK     0     -12.422  -5.736  -0.047  0.00  0.00    -0.361 N 
HETATM   10  C   UNK     0     -13.027  -6.079  -1.204  0.00  0.00     0.022 A 
HETATM   11  C   UNK     0     -14.157  -5.288  -1.392  0.00  0.00    -0.027 A 
HETATM   12  C   UNK     0     -14.226  -4.442  -0.314  0.00  0.00    -0.031 A 
HETATM   13  C   UNK     0     -15.299  -3.401  -0.088  0.00  0.00     0.051 C 
HETATM   14  C   UNK     0     -12.536  -7.125  -2.201  0.00  0.00     0.115 C 
HETATM   15  C   UNK     0     -11.168  -6.821  -2.789  0.00  0.00     0.021 A 
HETATM   16  N   UNK     0     -10.008  -6.652  -2.127  0.00  0.00    -0.361 N 
HETATM   17  C   UNK     0      -9.049  -6.330  -2.997  0.00  0.00     0.022 A 
HETATM   18  C   UNK     0      -9.608  -6.298  -4.290  0.00  0.00    -0.027 A 
HETATM   19  C   UNK     0     -10.935  -6.608  -4.146  0.00  0.00    -0.031 A 
HETATM   20  C   UNK     0     -11.907  -6.720  -5.307  0.00  0.00     0.051 C 
HETATM   21  C   UNK     0      -7.600  -5.971  -2.758  0.00  0.00     0.115 C 
HETATM   22  C   UNK     0      -7.268  -5.222  -1.489  0.00  0.00     0.022 A 
HETATM   23  N   UNK     0      -7.953  -4.228  -0.908  0.00  0.00    -0.361 N 
HETATM   24  C   UNK     0      -7.377  -3.955   0.281  0.00  0.00     0.021 A 
HETATM   25  C   UNK     0      -6.289  -4.787   0.465  0.00  0.00    -0.031 A 
HETATM   26  C   UNK     0      -5.308  -4.832   1.618  0.00  0.00     0.051 C 
HETATM   27  C   UNK     0      -6.198  -5.606  -0.655  0.00  0.00    -0.027 A 
HETATM   28  C   UNK     0      -7.849  -2.972   1.338  0.00  0.00     0.115 C 
HETATM   29  H   UNK     0     -10.530  -3.001   0.118  0.00  0.00     0.165 HD
HETATM   30  H   UNK     0     -11.526  -6.233   0.398  0.00  0.00     0.165 HD
HETATM   31  H   UNK     0      -9.852  -6.809  -1.028  0.00  0.00     0.165 HD
HETATM   32  H   UNK     0      -8.824  -3.680  -1.351  0.00  0.00     0.165 HD
ENDROOT
BRANCH   6  33
HETATM   33  C   UNK     0     -11.483  -4.286   4.591  0.00  0.00     0.051 C 
BRANCH  33  34
HETATM   34  C   UNK     0     -11.536  -5.792   4.697  0.00  0.00     0.114 C 
BRANCH  34  35
HETATM   35  C   UNK     0     -12.970  -6.179   4.836  0.00  0.00     0.139 C 
HETATM   36  O   UNK     0     -13.600  -6.654   3.847  0.00  0.00    -0.650 OA
BRANCH  35  37
HETATM   37  O   UNK     0     -13.670  -6.044   6.029  0.00  0.00    -0.776 OA
HETATM   38  H   UNK     0     -14.102  -6.830   6.487  0.00  0.00     0.167 HD
ENDBRANCH  35  37
ENDBRANCH  34  35
ENDBRANCH  33  34
ENDBRANCH   6  33
BRANCH  27  39
HETATM   39  C   UNK     0      -5.100  -6.591  -0.851  0.00  0.00     0.051 C 
BRANCH  39  40
HETATM   40  C   UNK     0      -4.031  -6.260  -1.793  0.00  0.00     0.114 C 
BRANCH  40  41
HETATM   41  C   UNK     0      -4.106  -6.604  -3.195  0.00  0.00     0.139 C 
HETATM   42  O   UNK     0      -3.991  -7.760  -3.623  0.00  0.00    -0.650 OA
BRANCH  41  43
HETATM   43  O   UNK     0      -4.321  -5.569  -4.150  0.00  0.00    -0.776 OA
HETATM   44  H   UNK     0      -5.141  -5.001  -3.974  0.00  0.00     0.167 HD
ENDBRANCH  41  43
ENDBRANCH  40  41
ENDBRANCH  39  40
ENDBRANCH  27  39
BRANCH  11  45
HETATM   45  C   UNK     0     -15.145  -5.312  -2.526  0.00  0.00     0.051 C 
BRANCH  45  46
HETATM   46  C   UNK     0     -14.678  -4.617  -3.752  0.00  0.00     0.114 C 
BRANCH  46  47
HETATM   47  C   UNK     0     -15.823  -4.585  -4.706  0.00  0.00     0.139 C 
HETATM   48  O   UNK     0     -16.943  -4.276  -4.276  0.00  0.00    -0.650 OA
BRANCH  47  49
HETATM   49  O   UNK     0     -15.643  -4.892  -6.031  0.00  0.00    -0.776 OA
HETATM   50  H   UNK     0     -15.959  -4.268  -6.783  0.00  0.00     0.167 HD
ENDBRANCH  47  49
ENDBRANCH  46  47
ENDBRANCH  45  46
ENDBRANCH  11  45
BRANCH  18  51
HETATM   51  C   UNK     0      -8.911  -6.007  -5.594  0.00  0.00     0.051 C 
BRANCH  51  52
HETATM   52  C   UNK     0      -8.559  -4.527  -5.569  0.00  0.00     0.114 C 
BRANCH  52  53
HETATM   53  C   UNK     0      -7.101  -4.308  -5.635  0.00  0.00     0.139 C 
HETATM   54  O   UNK     0      -6.408  -4.973  -6.422  0.00  0.00    -0.650 OA
BRANCH  53  55
HETATM   55  O   UNK     0      -6.518  -3.368  -4.821  0.00  0.00    -0.776 OA
HETATM   56  H   UNK     0      -6.843  -3.088  -3.926  0.00  0.00     0.167 HD
ENDBRANCH  53  55
ENDBRANCH  52  53
ENDBRANCH  51  52
ENDBRANCH  18  51
TORSDOF 16
ENDMDL
MODEL 13
REMARK VINA RESULT:      -7.9     20.943     22.663
REMARK  16 active torsions:
REMARK  status: ('A' for Active; 'I' for Inactive)
REMARK    1  A    between atoms: C_6  and  C_7 
REMARK    2  A    between atoms: C_7  and  C_8 
REMARK    3  A    between atoms: C_8  and  C_9 
REMARK    4  A    between atoms: C_9  and  O_11 
REMARK    5  A    between atoms: C_16  and  C_17 
REMARK    6  A    between atoms: C_17  and  C_18 
REMARK    7  A    between atoms: C_18  and  C_19 
REMARK    8  A    between atoms: C_19  and  O_21 
REMARK    9  A    between atoms: C_28  and  C_29 
REMARK   10  A    between atoms: C_29  and  C_30 
REMARK   11  A    between atoms: C_30  and  C_31 
REMARK   12  A    between atoms: C_31  and  O_33 
REMARK   13  A    between atoms: C_42  and  C_43 
REMARK   14  A    between atoms: C_43  and  C_44 
REMARK   15  A    between atoms: C_44  and  C_45 
REMARK   16  A    between atoms: C_45  and  O_47 
ROOT
HETATM    1  C   UNK     0     -15.004  -5.265  -2.384  0.00  0.00     0.051 C 
HETATM    2  C   UNK     0     -14.013  -5.343  -1.241  0.00  0.00    -0.031 A 
HETATM    3  C   UNK     0     -12.939  -6.201  -1.065  0.00  0.00     0.021 A 
HETATM    4  N   UNK     0     -12.347  -5.930   0.122  0.00  0.00    -0.361 N 
HETATM    5  C   UNK     0     -13.015  -4.912   0.703  0.00  0.00     0.022 A 
HETATM    6  C   UNK     0     -14.065  -4.522  -0.122  0.00  0.00    -0.027 A 
HETATM    7  C   UNK     0     -12.713  -4.175   1.970  0.00  0.00     0.115 C 
HETATM    8  C   UNK     0     -11.258  -3.821   2.223  0.00  0.00     0.021 A 
HETATM    9  N   UNK     0     -10.317  -3.465   1.334  0.00  0.00    -0.361 N 
HETATM   10  C   UNK     0      -9.147  -3.334   1.993  0.00  0.00     0.022 A 
HETATM   11  C   UNK     0      -9.340  -3.604   3.345  0.00  0.00    -0.027 A 
HETATM   12  C   UNK     0     -10.668  -3.911   3.497  0.00  0.00    -0.031 A 
HETATM   13  C   UNK     0     -11.339  -4.269   4.804  0.00  0.00     0.051 C 
HETATM   14  C   UNK     0      -7.794  -3.003   1.370  0.00  0.00     0.115 C 
HETATM   15  C   UNK     0      -7.319  -4.026   0.349  0.00  0.00     0.021 A 
HETATM   16  N   UNK     0      -7.944  -4.410  -0.779  0.00  0.00    -0.361 N 
HETATM   17  C   UNK     0      -7.236  -5.379  -1.364  0.00  0.00     0.022 A 
HETATM   18  C   UNK     0      -6.090  -5.631  -0.584  0.00  0.00    -0.027 A 
HETATM   19  C   UNK     0      -6.153  -4.776   0.485  0.00  0.00    -0.031 A 
HETATM   20  C   UNK     0      -5.087  -4.691   1.562  0.00  0.00     0.051 C 
HETATM   21  C   UNK     0      -7.538  -6.191  -2.603  0.00  0.00     0.115 C 
HETATM   22  C   UNK     0      -8.986  -6.513  -2.891  0.00  0.00     0.022 A 
HETATM   23  N   UNK     0      -9.945  -6.866  -2.026  0.00  0.00    -0.361 N 
HETATM   24  C   UNK     0     -11.117  -6.915  -2.690  0.00  0.00     0.021 A 
HETATM   25  C   UNK     0     -10.906  -6.596  -4.017  0.00  0.00    -0.031 A 
HETATM   26  C   UNK     0     -11.901  -6.555  -5.158  0.00  0.00     0.051 C 
HETATM   27  C   UNK     0      -9.549  -6.334  -4.171  0.00  0.00    -0.027 A 
HETATM   28  C   UNK     0     -12.499  -7.179  -2.118  0.00  0.00     0.115 C 
HETATM   29  H   UNK     0     -11.485  -6.486   0.560  0.00  0.00     0.165 HD
HETATM   30  H   UNK     0     -10.487  -3.257   0.250  0.00  0.00     0.165 HD
HETATM   31  H   UNK     0      -8.880  -3.956  -1.198  0.00  0.00     0.165 HD
HETATM   32  H   UNK     0      -9.796  -7.126  -0.945  0.00  0.00     0.165 HD
ENDROOT
BRANCH   6  33
HETATM   33  C   UNK     0     -15.102  -3.445   0.072  0.00  0.00     0.051 C 
BRANCH  33  34
HETATM   34  C   UNK     0     -16.439  -4.048   0.434  0.00  0.00     0.114 C 
BRANCH  34  35
HETATM   35  C   UNK     0     -16.389  -4.405   1.881  0.00  0.00     0.139 C 
HETATM   36  O   UNK     0     -16.398  -3.497   2.762  0.00  0.00    -0.650 OA
BRANCH  35  37
HETATM   37  O   UNK     0     -16.336  -5.720   2.327  0.00  0.00    -0.776 OA
HETATM   38  H   UNK     0     -16.439  -5.960   3.300  0.00  0.00     0.167 HD
ENDBRANCH  35  37
ENDBRANCH  34  35
ENDBRANCH  33  34
ENDBRANCH   6  33
BRANCH  27  39
HETATM   39  C   UNK     0      -8.927  -6.023  -5.486  0.00  0.00     0.051 C 
BRANCH  39  40
HETATM   40  C   UNK     0      -8.393  -4.678  -5.700  0.00  0.00     0.114 C 
BRANCH  40  41
HETATM   41  C   UNK     0      -6.976  -4.394  -5.649  0.00  0.00     0.139 C 
HETATM   42  O   UNK     0      -6.145  -4.930  -6.394  0.00  0.00    -0.650 OA
BRANCH  41  43
HETATM   43  O   UNK     0      -6.494  -3.451  -4.698  0.00  0.00    -0.776 OA
HETATM   44  H   UNK     0      -6.880  -2.520  -4.798  0.00  0.00     0.167 HD
ENDBRANCH  41  43
ENDBRANCH  40  41
ENDBRANCH  39  40
ENDBRANCH  27  39
BRANCH  11  45
HETATM   45  C   UNK     0      -8.334  -3.577   4.464  0.00  0.00     0.051 C 
BRANCH  45  46
HETATM   46  C   UNK     0      -7.381  -4.716   4.450  0.00  0.00     0.114 C 
BRANCH  46  47
HETATM   47  C   UNK     0      -6.467  -4.541   5.615  0.00  0.00     0.139 C 
HETATM   48  O   UNK     0      -6.717  -5.156   6.661  0.00  0.00    -0.650 OA
BRANCH  47  49
HETATM   49  O   UNK     0      -5.373  -3.717   5.533  0.00  0.00    -0.776 OA
HETATM   50  H   UNK     0      -5.154  -3.185   4.682  0.00  0.00     0.167 HD
ENDBRANCH  47  49
ENDBRANCH  46  47
ENDBRANCH  45  46
ENDBRANCH  11  45
BRANCH  18  51
HETATM   51  C   UNK     0      -4.984  -6.618  -0.855  0.00  0.00     0.051 C 
BRANCH  51  52
HETATM   52  C   UNK     0      -3.984  -5.902  -1.751  0.00  0.00     0.114 C 
BRANCH  52  53
HETATM   53  C   UNK     0      -4.026  -6.410  -3.136  0.00  0.00     0.139 C 
HETATM   54  O   UNK     0      -3.956  -7.630  -3.353  0.00  0.00    -0.650 OA
BRANCH  53  55
HETATM   55  O   UNK     0      -4.140  -5.526  -4.181  0.00  0.00    -0.776 OA
HETATM   56  H   UNK     0      -4.981  -5.112  -4.507  0.00  0.00     0.167 HD
ENDBRANCH  53  55
ENDBRANCH  52  53
ENDBRANCH  51  52
ENDBRANCH  18  51
TORSDOF 16
ENDMDL
MODEL 14
REMARK VINA RESULT:      -7.9     22.448     24.443
REMARK  16 active torsions:
REMARK  status: ('A' for Active; 'I' for Inactive)
REMARK    1  A    between atoms: C_6  and  C_7 
REMARK    2  A    between atoms: C_7  and  C_8 
REMARK    3  A    between atoms: C_8  and  C_9 
REMARK    4  A    between atoms: C_9  and  O_11 
REMARK    5  A    between atoms: C_16  and  C_17 
REMARK    6  A    between atoms: C_17  and  C_18 
REMARK    7  A    between atoms: C_18  and  C_19 
REMARK    8  A    between atoms: C_19  and  O_21 
REMARK    9  A    between atoms: C_28  and  C_29 
REMARK   10  A    between atoms: C_29  and  C_30 
REMARK   11  A    between atoms: C_30  and  C_31 
REMARK   12  A    between atoms: C_31  and  O_33 
REMARK   13  A    between atoms: C_42  and  C_43 
REMARK   14  A    between atoms: C_43  and  C_44 
REMARK   15  A    between atoms: C_44  and  C_45 
REMARK   16  A    between atoms: C_45  and  O_47 
ROOT
HETATM    1  C   UNK     0     -12.893  -5.395   9.072  0.00  0.00     0.051 C 
HETATM    2  C   UNK     0     -11.729  -5.617   8.128  0.00  0.00    -0.031 A 
HETATM    3  C   UNK     0     -11.710  -6.226   6.883  0.00  0.00     0.021 A 
HETATM    4  N   UNK     0     -10.441  -6.230   6.412  0.00  0.00    -0.361 N 
HETATM    5  C   UNK     0      -9.651  -5.630   7.327  0.00  0.00     0.022 A 
HETATM    6  C   UNK     0     -10.424  -5.237   8.414  0.00  0.00    -0.027 A 
HETATM    7  C   UNK     0      -8.193  -5.297   7.254  0.00  0.00     0.115 C 
HETATM    8  C   UNK     0      -7.688  -4.731   5.938  0.00  0.00     0.021 A 
HETATM    9  N   UNK     0      -8.318  -3.907   5.086  0.00  0.00    -0.361 N 
HETATM   10  C   UNK     0      -7.528  -3.741   4.004  0.00  0.00     0.022 A 
HETATM   11  C   UNK     0      -6.354  -4.470   4.168  0.00  0.00    -0.027 A 
HETATM   12  C   UNK     0      -6.448  -5.096   5.385  0.00  0.00    -0.031 A 
HETATM   13  C   UNK     0      -5.395  -5.998   5.988  0.00  0.00     0.051 C 
HETATM   14  C   UNK     0      -7.870  -2.935   2.754  0.00  0.00     0.115 C 
HETATM   15  C   UNK     0      -9.098  -3.439   2.013  0.00  0.00     0.021 A 
HETATM   16  N   UNK     0     -10.350  -3.565   2.489  0.00  0.00    -0.361 N 
HETATM   17  C   UNK     0     -11.124  -4.110   1.548  0.00  0.00     0.022 A 
HETATM   18  C   UNK     0     -10.341  -4.340   0.400  0.00  0.00    -0.027 A 
HETATM   19  C   UNK     0      -9.074  -3.915   0.703  0.00  0.00    -0.031 A 
HETATM   20  C   UNK     0      -7.914  -3.950  -0.275  0.00  0.00     0.051 C 
HETATM   21  C   UNK     0     -12.578  -4.521   1.603  0.00  0.00     0.115 C 
HETATM   22  C   UNK     0     -13.105  -5.045   2.918  0.00  0.00     0.022 A 
HETATM   23  N   UNK     0     -12.499  -5.862   3.789  0.00  0.00    -0.361 N 
HETATM   24  C   UNK     0     -13.269  -5.952   4.892  0.00  0.00     0.021 A 
HETATM   25  C   UNK     0     -14.403  -5.181   4.724  0.00  0.00    -0.031 A 
HETATM   26  C   UNK     0     -15.577  -4.994   5.663  0.00  0.00     0.051 C 
HETATM   27  C   UNK     0     -14.321  -4.590   3.468  0.00  0.00    -0.027 A 
HETATM   28  C   UNK     0     -12.959  -6.687   6.185  0.00  0.00     0.115 C 
HETATM   29  H   UNK     0     -10.105  -6.692   5.455  0.00  0.00     0.165 HD
HETATM   30  H   UNK     0      -9.298  -3.402   5.267  0.00  0.00     0.165 HD
HETATM   31  H   UNK     0     -10.708  -3.219   3.494  0.00  0.00     0.165 HD
HETATM   32  H   UNK     0     -11.542  -6.419   3.615  0.00  0.00     0.165 HD
ENDROOT
BRANCH   6  33
HETATM   33  C   UNK     0     -10.022  -4.539   9.689  0.00  0.00     0.051 C 
BRANCH  33  34
HETATM   34  C   UNK     0      -9.980  -3.042   9.489  0.00  0.00     0.114 C 
BRANCH  34  35
HETATM   35  C   UNK     0     -10.163  -2.408  10.826  0.00  0.00     0.139 C 
HETATM   36  O   UNK     0      -9.208  -1.781  11.370  0.00  0.00    -0.650 OA
BRANCH  35  37
HETATM   37  O   UNK     0     -11.362  -2.468  11.526  0.00  0.00    -0.776 OA
HETATM   38  H   UNK     0     -12.156  -1.900  11.277  0.00  0.00     0.167 HD
ENDBRANCH  35  37
ENDBRANCH  34  35
ENDBRANCH  33  34
ENDBRANCH   6  33
BRANCH  27  39
HETATM   39  C   UNK     0     -15.402  -3.739   2.900  0.00  0.00     0.051 C 
BRANCH  39  40
HETATM   40  C   UNK     0     -16.319  -4.337   1.930  0.00  0.00     0.114 C 
BRANCH  40  41
HETATM   41  C   UNK     0     -16.153  -4.163   0.504  0.00  0.00     0.139 C 
HETATM   42  O   UNK     0     -16.580  -3.181  -0.118  0.00  0.00    -0.650 OA
BRANCH  41  43
HETATM   43  O   UNK     0     -15.464  -5.163  -0.239  0.00  0.00    -0.776 OA
HETATM   44  H   UNK     0     -15.510  -5.045  -1.244  0.00  0.00     0.167 HD
ENDBRANCH  41  43
ENDBRANCH  40  41
ENDBRANCH  39  40
ENDBRANCH  27  39
BRANCH  11  45
HETATM   45  C   UNK     0      -5.179  -4.585   3.235  0.00  0.00     0.051 C 
BRANCH  45  46
HETATM   46  C   UNK     0      -4.161  -3.518   3.407  0.00  0.00     0.114 C 
BRANCH  46  47
HETATM   47  C   UNK     0      -2.881  -4.184   3.783  0.00  0.00     0.139 C 
HETATM   48  O   UNK     0      -2.084  -3.572   4.507  0.00  0.00    -0.650 OA
BRANCH  47  49
HETATM   49  O   UNK     0      -2.590  -5.449   3.336  0.00  0.00    -0.776 OA
HETATM   50  H   UNK     0      -3.027  -5.844   2.495  0.00  0.00     0.167 HD
ENDBRANCH  47  49
ENDBRANCH  46  47
ENDBRANCH  45  46
ENDBRANCH  11  45
BRANCH  18  51
HETATM   51  C   UNK     0     -10.780  -4.915  -0.922  0.00  0.00     0.051 C 
BRANCH  51  52
HETATM   52  C   UNK     0     -11.251  -3.738  -1.763  0.00  0.00     0.114 C 
BRANCH  52  53
HETATM   53  C   UNK     0     -12.660  -3.886  -2.175  0.00  0.00     0.139 C 
HETATM   54  O   UNK     0     -13.544  -3.211  -1.622  0.00  0.00    -0.650 OA
BRANCH  53  55
HETATM   55  O   UNK     0     -12.988  -4.775  -3.170  0.00  0.00    -0.776 OA
HETATM   56  H   UNK     0     -12.893  -4.620  -4.146  0.00  0.00     0.167 HD
ENDBRANCH  53  55
ENDBRANCH  52  53
ENDBRANCH  51  52
ENDBRANCH  18  51
TORSDOF 16
ENDMDL
MODEL 15
REMARK VINA RESULT:      -7.9     21.214     23.058
REMARK  16 active torsions:
REMARK  status: ('A' for Active; 'I' for Inactive)
REMARK    1  A    between atoms: C_6  and  C_7 
REMARK    2  A    between atoms: C_7  and  C_8 
REMARK    3  A    between atoms: C_8  and  C_9 
REMARK    4  A    between atoms: C_9  and  O_11 
REMARK    5  A    between atoms: C_16  and  C_17 
REMARK    6  A    between atoms: C_17  and  C_18 
REMARK    7  A    between atoms: C_18  and  C_19 
REMARK    8  A    between atoms: C_19  and  O_21 
REMARK    9  A    between atoms: C_28  and  C_29 
REMARK   10  A    between atoms: C_29  and  C_30 
REMARK   11  A    between atoms: C_30  and  C_31 
REMARK   12  A    between atoms: C_31  and  O_33 
REMARK   13  A    between atoms: C_42  and  C_43 
REMARK   14  A    between atoms: C_43  and  C_44 
REMARK   15  A    between atoms: C_44  and  C_45 
REMARK   16  A    between atoms: C_45  and  O_47 
ROOT
HETATM    1  C   UNK     0     -15.263  -5.455  -3.420  0.00  0.00     0.051 C 
HETATM    2  C   UNK     0     -14.367  -5.481  -2.198  0.00  0.00    -0.031 A 
HETATM    3  C   UNK     0     -13.335  -6.350  -1.882  0.00  0.00     0.021 A 
HETATM    4  N   UNK     0     -12.831  -6.016  -0.671  0.00  0.00    -0.361 N 
HETATM    5  C   UNK     0     -13.514  -4.948  -0.211  0.00  0.00     0.022 A 
HETATM    6  C   UNK     0     -14.485  -4.589  -1.140  0.00  0.00    -0.027 A 
HETATM    7  C   UNK     0     -13.293  -4.138   1.029  0.00  0.00     0.115 C 
HETATM    8  C   UNK     0     -11.854  -3.802   1.375  0.00  0.00     0.021 A 
HETATM    9  N   UNK     0     -10.836  -3.526   0.545  0.00  0.00    -0.361 N 
HETATM   10  C   UNK     0      -9.718  -3.379   1.286  0.00  0.00     0.022 A 
HETATM   11  C   UNK     0     -10.025  -3.556   2.632  0.00  0.00    -0.027 A 
HETATM   12  C   UNK     0     -11.369  -3.822   2.695  0.00  0.00    -0.031 A 
HETATM   13  C   UNK     0     -12.151  -4.080   3.964  0.00  0.00     0.051 C 
HETATM   14  C   UNK     0      -8.311  -3.120   0.754  0.00  0.00     0.115 C 
HETATM   15  C   UNK     0      -7.786  -4.217  -0.158  0.00  0.00     0.021 A 
HETATM   16  N   UNK     0      -8.330  -4.659  -1.307  0.00  0.00    -0.361 N 
HETATM   17  C   UNK     0      -7.606  -5.680  -1.771  0.00  0.00     0.022 A 
HETATM   18  C   UNK     0      -6.532  -5.907  -0.887  0.00  0.00    -0.027 A 
HETATM   19  C   UNK     0      -6.656  -4.983   0.118  0.00  0.00    -0.031 A 
HETATM   20  C   UNK     0      -5.677  -4.853   1.270  0.00  0.00     0.051 C 
HETATM   21  C   UNK     0      -7.831  -6.563  -2.977  0.00  0.00     0.115 C 
HETATM   22  C   UNK     0      -9.260  -6.870  -3.360  0.00  0.00     0.022 A 
HETATM   23  N   UNK     0     -10.294  -7.144  -2.554  0.00  0.00    -0.361 N 
HETATM   24  C   UNK     0     -11.411  -7.209  -3.307  0.00  0.00     0.021 A 
HETATM   25  C   UNK     0     -11.087  -6.981  -4.630  0.00  0.00    -0.031 A 
HETATM   26  C   UNK     0     -11.987  -6.992  -5.848  0.00  0.00     0.051 C 
HETATM   27  C   UNK     0      -9.715  -6.762  -4.690  0.00  0.00    -0.027 A 
HETATM   28  C   UNK     0     -12.841  -7.405  -2.833  0.00  0.00     0.115 C 
HETATM   29  H   UNK     0     -12.023  -6.562  -0.131  0.00  0.00     0.165 HD
HETATM   30  H   UNK     0     -10.913  -3.384  -0.561  0.00  0.00     0.165 HD
HETATM   31  H   UNK     0      -9.217  -4.212  -1.828  0.00  0.00     0.165 HD
HETATM   32  H   UNK     0     -10.239  -7.338  -1.452  0.00  0.00     0.165 HD
ENDROOT
BRANCH   6  33
HETATM   33  C   UNK     0     -15.504  -3.478  -1.099  0.00  0.00     0.051 C 
BRANCH  33  34
HETATM   34  C   UNK     0     -14.924  -2.199  -1.655  0.00  0.00     0.114 C 
BRANCH  34  35
HETATM   35  C   UNK     0     -15.934  -1.618  -2.585  0.00  0.00     0.139 C 
HETATM   36  O   UNK     0     -15.607  -0.690  -3.381  0.00  0.00    -0.650 OA
BRANCH  35  37
HETATM   37  O   UNK     0     -17.251  -2.057  -2.629  0.00  0.00    -0.776 OA
HETATM   38  H   UNK     0     -17.865  -1.985  -1.834  0.00  0.00     0.167 HD
ENDBRANCH  35  37
ENDBRANCH  34  35
ENDBRANCH  33  34
ENDBRANCH   6  33
BRANCH  27  39
HETATM   39  C   UNK     0      -8.983  -6.550  -5.968  0.00  0.00     0.051 C 
BRANCH  39  40
HETATM   40  C   UNK     0      -8.670  -5.179  -6.369  0.00  0.00     0.114 C 
BRANCH  40  41
HETATM   41  C   UNK     0      -7.713  -4.366  -5.652  0.00  0.00     0.139 C 
HETATM   42  O   UNK     0      -6.508  -4.320  -5.933  0.00  0.00    -0.650 OA
BRANCH  41  43
HETATM   43  O   UNK     0      -8.164  -3.568  -4.563  0.00  0.00    -0.776 OA
HETATM   44  H   UNK     0      -8.044  -2.571  -4.696  0.00  0.00     0.167 HD
ENDBRANCH  41  43
ENDBRANCH  40  41
ENDBRANCH  39  40
ENDBRANCH  27  39
BRANCH  11  45
HETATM   45  C   UNK     0      -9.110  -3.480   3.825  0.00  0.00     0.051 C 
BRANCH  45  46
HETATM   46  C   UNK     0      -8.329  -4.719   4.070  0.00  0.00     0.114 C 
BRANCH  46  47
HETATM   47  C   UNK     0      -7.247  -4.374   5.036  0.00  0.00     0.139 C 
HETATM   48  O   UNK     0      -6.262  -5.123   5.115  0.00  0.00    -0.650 OA
BRANCH  47  49
HETATM   49  O   UNK     0      -7.338  -3.255   5.824  0.00  0.00    -0.776 OA
HETATM   50  H   UNK     0      -6.896  -3.201   6.749  0.00  0.00     0.167 HD
ENDBRANCH  47  49
ENDBRANCH  46  47
ENDBRANCH  45  46
ENDBRANCH  11  45
BRANCH  18  51
HETATM   51  C   UNK     0      -5.436  -6.934  -1.005  0.00  0.00     0.051 C 
BRANCH  51  52
HETATM   52  C   UNK     0      -4.284  -6.247  -1.722  0.00  0.00     0.114 C 
BRANCH  52  53
HETATM   53  C   UNK     0      -4.238  -6.602  -3.154  0.00  0.00     0.139 C 
HETATM   54  O   UNK     0      -4.026  -7.776  -3.497  0.00  0.00    -0.650 OA
BRANCH  53  55
HETATM   55  O   UNK     0      -4.426  -5.626  -4.102  0.00  0.00    -0.776 OA
HETATM   56  H   UNK     0      -4.792  -4.717  -3.940  0.00  0.00     0.167 HD
ENDBRANCH  53  55
ENDBRANCH  52  53
ENDBRANCH  51  52
ENDBRANCH  18  51
TORSDOF 16
ENDMDL
MODEL 16
REMARK VINA RESULT:      -7.8     20.712     22.611
REMARK  16 active torsions:
REMARK  status: ('A' for Active; 'I' for Inactive)
REMARK    1  A    between atoms: C_6  and  C_7 
REMARK    2  A    between atoms: C_7  and  C_8 
REMARK    3  A    between atoms: C_8  and  C_9 
REMARK    4  A    between atoms: C_9  and  O_11 
REMARK    5  A    between atoms: C_16  and  C_17 
REMARK    6  A    between atoms: C_17  and  C_18 
REMARK    7  A    between atoms: C_18  and  C_19 
REMARK    8  A    between atoms: C_19  and  O_21 
REMARK    9  A    between atoms: C_28  and  C_29 
REMARK   10  A    between atoms: C_29  and  C_30 
REMARK   11  A    between atoms: C_30  and  C_31 
REMARK   12  A    between atoms: C_31  and  O_33 
REMARK   13  A    between atoms: C_42  and  C_43 
REMARK   14  A    between atoms: C_43  and  C_44 
REMARK   15  A    between atoms: C_44  and  C_45 
REMARK   16  A    between atoms: C_45  and  O_47 
ROOT
HETATM    1  C   UNK     0     -14.572  -3.986   0.876  0.00  0.00     0.051 C 
HETATM    2  C   UNK     0     -13.387  -4.489   1.676  0.00  0.00    -0.031 A 
HETATM    3  C   UNK     0     -12.423  -5.420   1.327  0.00  0.00     0.021 A 
HETATM    4  N   UNK     0     -11.571  -5.584   2.367  0.00  0.00    -0.361 N 
HETATM    5  C   UNK     0     -11.966  -4.770   3.367  0.00  0.00     0.022 A 
HETATM    6  C   UNK     0     -13.102  -4.072   2.970  0.00  0.00    -0.027 A 
HETATM    7  C   UNK     0     -11.318  -4.502   4.690  0.00  0.00     0.115 C 
HETATM    8  C   UNK     0      -9.809  -4.338   4.688  0.00  0.00     0.021 A 
HETATM    9  N   UNK     0      -9.030  -3.771   3.753  0.00  0.00    -0.361 N 
HETATM   10  C   UNK     0      -7.743  -3.931   4.126  0.00  0.00     0.022 A 
HETATM   11  C   UNK     0      -7.691  -4.611   5.340  0.00  0.00    -0.027 A 
HETATM   12  C   UNK     0      -8.989  -4.870   5.699  0.00  0.00    -0.031 A 
HETATM   13  C   UNK     0      -9.420  -5.590   6.957  0.00  0.00     0.051 C 
HETATM   14  C   UNK     0      -6.514  -3.498   3.332  0.00  0.00     0.115 C 
HETATM   15  C   UNK     0      -6.396  -4.162   1.969  0.00  0.00     0.021 A 
HETATM   16  N   UNK     0      -7.283  -4.123   0.957  0.00  0.00    -0.361 N 
HETATM   17  C   UNK     0      -6.843  -4.891  -0.042  0.00  0.00     0.022 A 
HETATM   18  C   UNK     0      -5.605  -5.450   0.334  0.00  0.00    -0.027 A 
HETATM   19  C   UNK     0      -5.336  -4.985   1.595  0.00  0.00    -0.031 A 
HETATM   20  C   UNK     0      -4.072  -5.317   2.365  0.00  0.00     0.051 C 
HETATM   21  C   UNK     0      -7.495  -5.239  -1.360  0.00  0.00     0.115 C 
HETATM   22  C   UNK     0      -9.001  -5.363  -1.383  0.00  0.00     0.022 A 
HETATM   23  N   UNK     0      -9.802  -5.918  -0.464  0.00  0.00    -0.361 N 
HETATM   24  C   UNK     0     -11.081  -5.679  -0.817  0.00  0.00     0.021 A 
HETATM   25  C   UNK     0     -11.104  -4.961  -1.997  0.00  0.00    -0.031 A 
HETATM   26  C   UNK     0     -12.297  -4.493  -2.805  0.00  0.00     0.051 C 
HETATM   27  C   UNK     0      -9.785  -4.747  -2.379  0.00  0.00    -0.027 A 
HETATM   28  C   UNK     0     -12.340  -6.030  -0.044  0.00  0.00     0.115 C 
HETATM   29  H   UNK     0     -10.719  -6.302   2.401  0.00  0.00     0.165 HD
HETATM   30  H   UNK     0      -9.388  -3.213   2.853  0.00  0.00     0.165 HD
HETATM   31  H   UNK     0      -8.217  -3.502   0.927  0.00  0.00     0.165 HD
HETATM   32  H   UNK     0      -9.472  -6.522   0.421  0.00  0.00     0.165 HD
ENDROOT
BRANCH   6  33
HETATM   33  C   UNK     0     -13.927  -3.055   3.717  0.00  0.00     0.051 C 
BRANCH  33  34
HETATM   34  C   UNK     0     -14.838  -3.732   4.713  0.00  0.00     0.114 C 
BRANCH  34  35
HETATM   35  C   UNK     0     -16.164  -3.054   4.638  0.00  0.00     0.139 C 
HETATM   36  O   UNK     0     -16.930  -3.258   3.652  0.00  0.00    -0.650 OA
BRANCH  35  37
HETATM   37  O   UNK     0     -16.617  -2.185   5.624  0.00  0.00    -0.776 OA
HETATM   38  H   UNK     0     -16.129  -2.066   6.497  0.00  0.00     0.167 HD
ENDBRANCH  35  37
ENDBRANCH  34  35
ENDBRANCH  33  34
ENDBRANCH   6  33
BRANCH  27  39
HETATM   39  C   UNK     0      -9.408  -4.064  -3.647  0.00  0.00     0.051 C 
BRANCH  39  40
HETATM   40  C   UNK     0      -8.776  -4.858  -4.701  0.00  0.00     0.114 C 
BRANCH  40  41
HETATM   41  C   UNK     0      -7.385  -4.694  -5.059  0.00  0.00     0.139 C 
HETATM   42  O   UNK     0      -6.769  -5.485  -5.787  0.00  0.00    -0.650 OA
BRANCH  41  43
HETATM   43  O   UNK     0      -6.669  -3.571  -4.555  0.00  0.00    -0.776 OA
HETATM   44  H   UNK     0      -6.028  -3.787  -3.802  0.00  0.00     0.167 HD
ENDBRANCH  41  43
ENDBRANCH  40  41
ENDBRANCH  39  40
ENDBRANCH  27  39
BRANCH  11  45
HETATM   45  C   UNK     0      -6.483  -5.008   6.146  0.00  0.00     0.051 C 
BRANCH  45  46
HETATM   46  C   UNK     0      -5.833  -6.261   5.686  0.00  0.00     0.114 C 
BRANCH  46  47
HETATM   47  C   UNK     0      -5.887  -7.228   6.820  0.00  0.00     0.139 C 
HETATM   48  O   UNK     0      -5.709  -8.431   6.581  0.00  0.00    -0.650 OA
BRANCH  47  49
HETATM   49  O   UNK     0      -6.131  -6.798   8.099  0.00  0.00    -0.776 OA
HETATM   50  H   UNK     0      -5.385  -6.727   8.802  0.00  0.00     0.167 HD
ENDBRANCH  47  49
ENDBRANCH  46  47
ENDBRANCH  45  46
ENDBRANCH  11  45
BRANCH  18  51
HETATM   51  C   UNK     0      -4.717  -6.361  -0.473  0.00  0.00     0.051 C 
BRANCH  51  52
HETATM   52  C   UNK     0      -4.222  -5.538  -1.653  0.00  0.00     0.114 C 
BRANCH  52  53
HETATM   53  C   UNK     0      -4.271  -6.301  -2.915  0.00  0.00     0.139 C 
HETATM   54  O   UNK     0      -4.350  -7.540  -2.890  0.00  0.00    -0.650 OA
BRANCH  53  55
HETATM   55  O   UNK     0      -4.226  -5.634  -4.115  0.00  0.00    -0.776 OA
HETATM   56  H   UNK     0      -3.683  -5.889  -4.905  0.00  0.00     0.167 HD
ENDBRANCH  53  55
ENDBRANCH  52  53
ENDBRANCH  51  52
ENDBRANCH  18  51
TORSDOF 16
ENDMDL
MODEL 17
REMARK VINA RESULT:      -7.7     11.517     15.123
REMARK  16 active torsions:
REMARK  status: ('A' for Active; 'I' for Inactive)
REMARK    1  A    between atoms: C_6  and  C_7 
REMARK    2  A    between atoms: C_7  and  C_8 
REMARK    3  A    between atoms: C_8  and  C_9 
REMARK    4  A    between atoms: C_9  and  O_11 
REMARK    5  A    between atoms: C_16  and  C_17 
REMARK    6  A    between atoms: C_17  and  C_18 
REMARK    7  A    between atoms: C_18  and  C_19 
REMARK    8  A    between atoms: C_19  and  O_21 
REMARK    9  A    between atoms: C_28  and  C_29 
REMARK   10  A    between atoms: C_29  and  C_30 
REMARK   11  A    between atoms: C_30  and  C_31 
REMARK   12  A    between atoms: C_31  and  O_33 
REMARK   13  A    between atoms: C_42  and  C_43 
REMARK   14  A    between atoms: C_43  and  C_44 
REMARK   15  A    between atoms: C_44  and  C_45 
REMARK   16  A    between atoms: C_45  and  O_47 
ROOT
HETATM    1  C   UNK     0       2.664 -15.667 -11.455  0.00  0.00     0.051 C 
HETATM    2  C   UNK     0       2.642 -14.891 -12.756  0.00  0.00    -0.031 A 
HETATM    3  C   UNK     0       1.600 -14.195 -13.348  0.00  0.00     0.021 A 
HETATM    4  N   UNK     0       2.026 -13.680 -14.526  0.00  0.00    -0.361 N 
HETATM    5  C   UNK     0       3.319 -14.025 -14.693  0.00  0.00     0.022 A 
HETATM    6  C   UNK     0       3.736 -14.786 -13.606  0.00  0.00    -0.027 A 
HETATM    7  C   UNK     0       4.277 -13.634 -15.775  0.00  0.00     0.115 C 
HETATM    8  C   UNK     0       4.248 -12.182 -16.218  0.00  0.00     0.021 A 
HETATM    9  N   UNK     0       4.032 -11.085 -15.476  0.00  0.00    -0.361 N 
HETATM   10  C   UNK     0       4.004 -10.018 -16.302  0.00  0.00     0.022 A 
HETATM   11  C   UNK     0       4.217 -10.438 -17.612  0.00  0.00    -0.027 A 
HETATM   12  C   UNK     0       4.372 -11.800 -17.566  0.00  0.00    -0.031 A 
HETATM   13  C   UNK     0       4.631 -12.691 -18.760  0.00  0.00     0.051 C 
HETATM   14  C   UNK     0       3.723  -8.573 -15.900  0.00  0.00     0.115 C 
HETATM   15  C   UNK     0       2.352  -8.362 -15.277  0.00  0.00     0.021 A 
HETATM   16  N   UNK     0       1.850  -8.952 -14.177  0.00  0.00    -0.361 N 
HETATM   17  C   UNK     0       0.589  -8.553 -14.001  0.00  0.00     0.022 A 
HETATM   18  C   UNK     0       0.256  -7.651 -15.032  0.00  0.00    -0.027 A 
HETATM   19  C   UNK     0       1.370  -7.539 -15.824  0.00  0.00    -0.031 A 
HETATM   20  C   UNK     0       1.454  -6.632 -17.038  0.00  0.00     0.051 C 
HETATM   21  C   UNK     0      -0.429  -8.973 -12.965  0.00  0.00     0.115 C 
HETATM   22  C   UNK     0      -0.383 -10.403 -12.482  0.00  0.00     0.022 A 
HETATM   23  N   UNK     0      -0.166 -11.514 -13.198  0.00  0.00    -0.361 N 
HETATM   24  C   UNK     0      -0.064 -12.554 -12.346  0.00  0.00     0.021 A 
HETATM   25  C   UNK     0      -0.230 -12.103 -11.051  0.00  0.00    -0.031 A 
HETATM   26  C   UNK     0      -0.241 -12.896  -9.760  0.00  0.00     0.051 C 
HETATM   27  C   UNK     0      -0.436 -10.730 -11.112  0.00  0.00    -0.027 A 
HETATM   28  C   UNK     0       0.270 -13.998 -12.678  0.00  0.00     0.115 C 
HETATM   29  H   UNK     0       1.399 -13.110 -15.249  0.00  0.00     0.165 HD
HETATM   30  H   UNK     0       3.948 -11.054 -14.362  0.00  0.00     0.165 HD
HETATM   31  H   UNK     0       2.412  -9.629 -13.481  0.00  0.00     0.165 HD
HETATM   32  H   UNK     0      -0.125 -11.582 -14.317  0.00  0.00     0.165 HD
ENDROOT
BRANCH   6  33
HETATM   33  C   UNK     0       5.076 -15.414 -13.317  0.00  0.00     0.051 C 
BRANCH  33  34
HETATM   34  C   UNK     0       5.974 -14.446 -12.583  0.00  0.00     0.114 C 
BRANCH  34  35
HETATM   35  C   UNK     0       7.310 -14.488 -13.244  0.00  0.00     0.139 C 
HETATM   36  O   UNK     0       7.405 -14.783 -14.471  0.00  0.00    -0.650 OA
BRANCH  35  37
HETATM   37  O   UNK     0       8.490 -14.208 -12.566  0.00  0.00    -0.776 OA
HETATM   38  H   UNK     0       9.352 -14.684 -12.776  0.00  0.00     0.167 HD
ENDBRANCH  35  37
ENDBRANCH  34  35
ENDBRANCH  33  34
ENDBRANCH   6  33
BRANCH  27  39
HETATM   39  C   UNK     0      -0.725  -9.899  -9.912  0.00  0.00     0.051 C 
BRANCH  39  40
HETATM   40  C   UNK     0       0.358  -9.094  -9.348  0.00  0.00     0.114 C 
BRANCH  40  41
HETATM   41  C   UNK     0       0.460  -7.671  -9.579  0.00  0.00     0.139 C 
HETATM   42  O   UNK     0      -0.440  -6.995 -10.094  0.00  0.00    -0.650 OA
BRANCH  41  43
HETATM   43  O   UNK     0       1.654  -6.993  -9.200  0.00  0.00    -0.776 OA
HETATM   44  H   UNK     0       1.602  -5.984  -9.266  0.00  0.00     0.167 HD
ENDBRANCH  41  43
ENDBRANCH  40  41
ENDBRANCH  39  40
ENDBRANCH  27  39
BRANCH  11  45
HETATM   45  C   UNK     0       4.280  -9.611 -18.868  0.00  0.00     0.051 C 
BRANCH  45  46
HETATM   46  C   UNK     0       2.979  -9.480 -19.573  0.00  0.00     0.114 C 
BRANCH  46  47
HETATM   47  C   UNK     0       2.811  -8.041 -19.926  0.00  0.00     0.139 C 
HETATM   48  O   UNK     0       1.740  -7.676 -20.430  0.00  0.00    -0.650 OA
BRANCH  47  49
HETATM   49  O   UNK     0       3.820  -7.140 -19.700  0.00  0.00    -0.776 OA
HETATM   50  H   UNK     0       3.634  -6.185 -19.371  0.00  0.00     0.167 HD
ENDBRANCH  47  49
ENDBRANCH  46  47
ENDBRANCH  45  46
ENDBRANCH  11  45
BRANCH  18  51
HETATM   51  C   UNK     0      -1.045  -6.920 -15.239  0.00  0.00     0.051 C 
BRANCH  51  52
HETATM   52  C   UNK     0      -0.972  -5.668 -14.377  0.00  0.00     0.114 C 
BRANCH  52  53
HETATM   53  C   UNK     0      -2.075  -5.609 -13.399  0.00  0.00     0.139 C 
HETATM   54  O   UNK     0      -2.980  -6.458 -13.431  0.00  0.00    -0.650 OA
BRANCH  53  55
HETATM   55  O   UNK     0      -2.096  -4.609 -12.457  0.00  0.00    -0.776 OA
HETATM   56  H   UNK     0      -2.906  -4.222 -12.034  0.00  0.00     0.167 HD
ENDBRANCH  53  55
ENDBRANCH  52  53
ENDBRANCH  51  52
ENDBRANCH  18  51
TORSDOF 16
ENDMDL
MODEL 18
REMARK VINA RESULT:      -7.7     34.658     36.504
REMARK  16 active torsions:
REMARK  status: ('A' for Active; 'I' for Inactive)
REMARK    1  A    between atoms: C_6  and  C_7 
REMARK    2  A    between atoms: C_7  and  C_8 
REMARK    3  A    between atoms: C_8  and  C_9 
REMARK    4  A    between atoms: C_9  and  O_11 
REMARK    5  A    between atoms: C_16  and  C_17 
REMARK    6  A    between atoms: C_17  and  C_18 
REMARK    7  A    between atoms: C_18  and  C_19 
REMARK    8  A    between atoms: C_19  and  O_21 
REMARK    9  A    between atoms: C_28  and  C_29 
REMARK   10  A    between atoms: C_29  and  C_30 
REMARK   11  A    between atoms: C_30  and  C_31 
REMARK   12  A    between atoms: C_31  and  O_33 
REMARK   13  A    between atoms: C_42  and  C_43 
REMARK   14  A    between atoms: C_43  and  C_44 
REMARK   15  A    between atoms: C_44  and  C_45 
REMARK   16  A    between atoms: C_45  and  O_47 
ROOT
HETATM    1  C   UNK     0     -22.844  -8.204  -0.683  0.00  0.00     0.051 C 
HETATM    2  C   UNK     0     -22.195  -6.999  -0.033  0.00  0.00    -0.031 A 
HETATM    3  C   UNK     0     -22.295  -5.658  -0.368  0.00  0.00     0.021 A 
HETATM    4  N   UNK     0     -21.515  -4.935   0.471  0.00  0.00    -0.361 N 
HETATM    5  C   UNK     0     -20.928  -5.785   1.338  0.00  0.00     0.022 A 
HETATM    6  C   UNK     0     -21.329  -7.085   1.050  0.00  0.00    -0.027 A 
HETATM    7  C   UNK     0     -20.053  -5.489   2.516  0.00  0.00     0.115 C 
HETATM    8  C   UNK     0     -20.470  -4.327   3.400  0.00  0.00     0.021 A 
HETATM    9  N   UNK     0     -21.708  -3.928   3.728  0.00  0.00    -0.361 N 
HETATM   10  C   UNK     0     -21.605  -2.798   4.459  0.00  0.00     0.022 A 
HETATM   11  C   UNK     0     -20.263  -2.464   4.614  0.00  0.00    -0.027 A 
HETATM   12  C   UNK     0     -19.542  -3.424   3.950  0.00  0.00    -0.031 A 
HETATM   13  C   UNK     0     -18.034  -3.472   3.852  0.00  0.00     0.051 C 
HETATM   14  C   UNK     0     -22.764  -1.961   4.992  0.00  0.00     0.115 C 
HETATM   15  C   UNK     0     -23.669  -1.399   3.907  0.00  0.00     0.021 A 
HETATM   16  N   UNK     0     -24.360  -2.085   2.978  0.00  0.00    -0.361 N 
HETATM   17  C   UNK     0     -24.977  -1.223   2.166  0.00  0.00     0.022 A 
HETATM   18  C   UNK     0     -24.681   0.087   2.592  0.00  0.00    -0.027 A 
HETATM   19  C   UNK     0     -23.862  -0.037   3.685  0.00  0.00    -0.031 A 
HETATM   20  C   UNK     0     -23.333   1.142   4.481  0.00  0.00     0.051 C 
HETATM   21  C   UNK     0     -25.812  -1.478   0.932  0.00  0.00     0.115 C 
HETATM   22  C   UNK     0     -25.435  -2.658   0.066  0.00  0.00     0.022 A 
HETATM   23  N   UNK     0     -24.211  -3.080  -0.273  0.00  0.00    -0.361 N 
HETATM   24  C   UNK     0     -24.334  -4.249  -0.934  0.00  0.00     0.021 A 
HETATM   25  C   UNK     0     -25.671  -4.582  -1.031  0.00  0.00    -0.031 A 
HETATM   26  C   UNK     0     -26.310  -5.773  -1.715  0.00  0.00     0.051 C 
HETATM   27  C   UNK     0     -26.396  -3.578  -0.399  0.00  0.00    -0.027 A 
HETATM   28  C   UNK     0     -23.223  -5.155  -1.437  0.00  0.00     0.115 C 
HETATM   29  H   UNK     0     -21.355  -3.833   0.419  0.00  0.00     0.165 HD
HETATM   30  H   UNK     0     -22.656  -4.470   3.488  0.00  0.00     0.165 HD
HETATM   31  H   UNK     0     -24.455  -3.200   2.922  0.00  0.00     0.165 HD
HETATM   32  H   UNK     0     -23.249  -2.535  -0.087  0.00  0.00     0.165 HD
ENDROOT
BRANCH   6  33
HETATM   33  C   UNK     0     -20.955  -8.385   1.715  0.00  0.00     0.051 C 
BRANCH  33  34
HETATM   34  C   UNK     0     -21.894  -8.692   2.857  0.00  0.00     0.114 C 
BRANCH  34  35
HETATM   35  C   UNK     0     -22.173 -10.156   2.825  0.00  0.00     0.139 C 
HETATM   36  O   UNK     0     -22.354 -10.746   1.720  0.00  0.00    -0.650 OA
BRANCH  35  37
HETATM   37  O   UNK     0     -22.244 -10.931   3.977  0.00  0.00    -0.776 OA
HETATM   38  H   UNK     0     -22.661 -10.588   4.827  0.00  0.00     0.167 HD
ENDBRANCH  35  37
ENDBRANCH  34  35
ENDBRANCH  33  34
ENDBRANCH   6  33
BRANCH  27  39
HETATM   39  C   UNK     0     -27.884  -3.553  -0.361  0.00  0.00     0.051 C 
BRANCH  39  40
HETATM   40  C   UNK     0     -28.578  -2.482  -1.074  0.00  0.00     0.114 C 
BRANCH  40  41
HETATM   41  C   UNK     0     -29.135  -1.336  -0.391  0.00  0.00     0.139 C 
HETATM   42  O   UNK     0     -29.624  -1.389   0.746  0.00  0.00    -0.650 OA
BRANCH  41  43
HETATM   43  O   UNK     0     -29.130  -0.071  -1.045  0.00  0.00    -0.776 OA
HETATM   44  H   UNK     0     -28.220   0.372  -1.092  0.00  0.00     0.167 HD
ENDBRANCH  41  43
ENDBRANCH  40  41
ENDBRANCH  39  40
ENDBRANCH  27  39
BRANCH  11  45
HETATM   45  C   UNK     0     -19.661  -1.300   5.353  0.00  0.00     0.051 C 
BRANCH  45  46
HETATM   46  C   UNK     0     -19.716  -1.427   6.832  0.00  0.00     0.114 C 
BRANCH  46  47
HETATM   47  C   UNK     0     -18.468  -2.120   7.263  0.00  0.00     0.139 C 
HETATM   48  O   UNK     0     -18.567  -3.140   7.959  0.00  0.00    -0.650 OA
BRANCH  47  49
HETATM   49  O   UNK     0     -17.236  -1.639   6.898  0.00  0.00    -0.776 OA
HETATM   50  H   UNK     0     -17.121  -0.730   6.435  0.00  0.00     0.167 HD
ENDBRANCH  47  49
ENDBRANCH  46  47
ENDBRANCH  45  46
ENDBRANCH  11  45
BRANCH  18  51
HETATM   51  C   UNK     0     -25.169   1.385   2.004  0.00  0.00     0.051 C 
BRANCH  51  52
HETATM   52  C   UNK     0     -26.146   1.970   3.013  0.00  0.00     0.114 C 
BRANCH  52  53
HETATM   53  C   UNK     0     -27.408   1.207   3.062  0.00  0.00     0.139 C 
HETATM   54  O   UNK     0     -27.818   0.752   4.142  0.00  0.00    -0.650 OA
BRANCH  53  55
HETATM   55  O   UNK     0     -28.122   1.000   1.907  0.00  0.00    -0.776 OA
HETATM   56  H   UNK     0     -28.189   0.145   1.406  0.00  0.00     0.167 HD
ENDBRANCH  53  55
ENDBRANCH  52  53
ENDBRANCH  51  52
ENDBRANCH  18  51
TORSDOF 16
ENDMDL
MODEL 19
REMARK VINA RESULT:      -7.7     13.400     18.880
REMARK  16 active torsions:
REMARK  status: ('A' for Active; 'I' for Inactive)
REMARK    1  A    between atoms: C_6  and  C_7 
REMARK    2  A    between atoms: C_7  and  C_8 
REMARK    3  A    between atoms: C_8  and  C_9 
REMARK    4  A    between atoms: C_9  and  O_11 
REMARK    5  A    between atoms: C_16  and  C_17 
REMARK    6  A    between atoms: C_17  and  C_18 
REMARK    7  A    between atoms: C_18  and  C_19 
REMARK    8  A    between atoms: C_19  and  O_21 
REMARK    9  A    between atoms: C_28  and  C_29 
REMARK   10  A    between atoms: C_29  and  C_30 
REMARK   11  A    between atoms: C_30  and  C_31 
REMARK   12  A    between atoms: C_31  and  O_33 
REMARK   13  A    between atoms: C_42  and  C_43 
REMARK   14  A    between atoms: C_43  and  C_44 
REMARK   15  A    between atoms: C_44  and  C_45 
REMARK   16  A    between atoms: C_45  and  O_47 
ROOT
HETATM    1  C   UNK     0       3.467 -12.028 -25.607  0.00  0.00     0.051 C 
HETATM    2  C   UNK     0       2.948 -11.742 -24.212  0.00  0.00    -0.031 A 
HETATM    3  C   UNK     0       2.581 -12.628 -23.212  0.00  0.00     0.021 A 
HETATM    4  N   UNK     0       2.145 -11.927 -22.139  0.00  0.00    -0.361 N 
HETATM    5  C   UNK     0       2.235 -10.613 -22.431  0.00  0.00     0.022 A 
HETATM    6  C   UNK     0       2.731 -10.461 -23.721  0.00  0.00    -0.027 A 
HETATM    7  C   UNK     0       1.969  -9.424 -21.560  0.00  0.00     0.115 C 
HETATM    8  C   UNK     0       2.482  -9.496 -20.133  0.00  0.00     0.021 A 
HETATM    9  N   UNK     0       3.608 -10.068 -19.676  0.00  0.00    -0.361 N 
HETATM   10  C   UNK     0       3.610  -9.972 -18.330  0.00  0.00     0.022 A 
HETATM   11  C   UNK     0       2.459  -9.312 -17.908  0.00  0.00    -0.027 A 
HETATM   12  C   UNK     0       1.744  -9.010 -19.039  0.00  0.00    -0.031 A 
HETATM   13  C   UNK     0       0.418  -8.284 -19.066  0.00  0.00     0.051 C 
HETATM   14  C   UNK     0       4.667 -10.542 -17.388  0.00  0.00     0.115 C 
HETATM   15  C   UNK     0       4.811 -12.053 -17.467  0.00  0.00     0.021 A 
HETATM   16  N   UNK     0       5.121 -12.794 -18.548  0.00  0.00    -0.361 N 
HETATM   17  C   UNK     0       5.079 -14.087 -18.220  0.00  0.00     0.022 A 
HETATM   18  C   UNK     0       4.734 -14.194 -16.858  0.00  0.00    -0.027 A 
HETATM   19  C   UNK     0       4.570 -12.914 -16.398  0.00  0.00    -0.031 A 
HETATM   20  C   UNK     0       4.228 -12.572 -14.959  0.00  0.00     0.051 C 
HETATM   21  C   UNK     0       5.274 -15.314 -19.081  0.00  0.00     0.115 C 
HETATM   22  C   UNK     0       4.809 -15.241 -20.516  0.00  0.00     0.022 A 
HETATM   23  N   UNK     0       3.695 -14.675 -21.000  0.00  0.00    -0.361 N 
HETATM   24  C   UNK     0       3.751 -14.713 -22.347  0.00  0.00     0.021 A 
HETATM   25  C   UNK     0       4.925 -15.328 -22.740  0.00  0.00    -0.031 A 
HETATM   26  C   UNK     0       5.416 -15.638 -24.138  0.00  0.00     0.051 C 
HETATM   27  C   UNK     0       5.618 -15.674 -21.586  0.00  0.00    -0.027 A 
HETATM   28  C   UNK     0       2.765 -14.115 -23.335  0.00  0.00     0.115 C 
HETATM   29  H   UNK     0       1.739 -12.365 -21.198  0.00  0.00     0.165 HD
HETATM   30  H   UNK     0       4.426 -10.495 -20.305  0.00  0.00     0.165 HD
HETATM   31  H   UNK     0       5.422 -12.394 -19.551  0.00  0.00     0.165 HD
HETATM   32  H   UNK     0       2.838 -14.282 -20.394  0.00  0.00     0.165 HD
ENDROOT
BRANCH   6  33
HETATM   33  C   UNK     0       3.009  -9.209 -24.513  0.00  0.00     0.051 C 
BRANCH  33  34
HETATM   34  C   UNK     0       4.253  -8.519 -24.005  0.00  0.00     0.114 C 
BRANCH  34  35
HETATM   35  C   UNK     0       4.890  -7.835 -25.166  0.00  0.00     0.139 C 
HETATM   36  O   UNK     0       4.635  -6.620 -25.409  0.00  0.00    -0.650 OA
BRANCH  35  37
HETATM   37  O   UNK     0       5.778  -8.480 -26.020  0.00  0.00    -0.776 OA
HETATM   38  H   UNK     0       5.477  -9.191 -26.666  0.00  0.00     0.167 HD
ENDBRANCH  35  37
ENDBRANCH  34  35
ENDBRANCH  33  34
ENDBRANCH   6  33
BRANCH  27  39
HETATM   39  C   UNK     0       6.904 -16.423 -21.608  0.00  0.00     0.051 C 
BRANCH  39  40
HETATM   40  C   UNK     0       8.076 -15.774 -22.195  0.00  0.00     0.114 C 
BRANCH  40  41
HETATM   41  C   UNK     0       8.950 -16.455 -23.123  0.00  0.00     0.139 C 
HETATM   42  O   UNK     0       8.600 -17.428 -23.804  0.00  0.00    -0.650 OA
BRANCH  41  43
HETATM   43  O   UNK     0      10.289 -15.995 -23.275  0.00  0.00    -0.776 OA
HETATM   44  H   UNK     0      10.874 -16.591 -23.848  0.00  0.00     0.167 HD
ENDBRANCH  41  43
ENDBRANCH  40  41
ENDBRANCH  39  40
ENDBRANCH  27  39
BRANCH  11  45
HETATM   45  C   UNK     0       2.031  -8.968 -16.507  0.00  0.00     0.051 C 
BRANCH  45  46
HETATM   46  C   UNK     0       2.130  -7.523 -16.181  0.00  0.00     0.114 C 
BRANCH  46  47
HETATM   47  C   UNK     0       3.580  -7.189 -16.085  0.00  0.00     0.139 C 
HETATM   48  O   UNK     0       4.238  -7.671 -15.152  0.00  0.00    -0.650 OA
BRANCH  47  49
HETATM   49  O   UNK     0       4.174  -6.366 -17.008  0.00  0.00    -0.776 OA
HETATM   50  H   UNK     0       4.998  -5.797 -16.780  0.00  0.00     0.167 HD
ENDBRANCH  47  49
ENDBRANCH  46  47
ENDBRANCH  45  46
ENDBRANCH  11  45
BRANCH  18  51
HETATM   51  C   UNK     0       4.590 -15.448 -16.035  0.00  0.00     0.051 C 
BRANCH  51  52
HETATM   52  C   UNK     0       5.970 -16.087 -15.987  0.00  0.00     0.114 C 
BRANCH  52  53
HETATM   53  C   UNK     0       6.815 -15.492 -14.934  0.00  0.00     0.139 C 
HETATM   54  O   UNK     0       7.828 -14.844 -15.241  0.00  0.00    -0.650 OA
BRANCH  53  55
HETATM   55  O   UNK     0       6.475 -15.662 -13.613  0.00  0.00    -0.776 OA
HETATM   56  H   UNK     0       6.110 -14.964 -13.010  0.00  0.00     0.167 HD
ENDBRANCH  53  55
ENDBRANCH  52  53
ENDBRANCH  51  52
ENDBRANCH  18  51
TORSDOF 16
ENDMDL
