MODEL 1
REMARK VINA RESULT:      -9.0      0.000      0.000
REMARK  16 active torsions:
REMARK  status: ('A' for Active; 'I' for Inactive)
REMARK    1  A    between atoms: C_6  and  C_7 
REMARK    2  A    between atoms: C_7  and  C_8 
REMARK    3  A    between atoms: C_8  and  C_9 
REMARK    4  A    between atoms: C_9  and  O_11 
REMARK    5  A    between atoms: C_16  and  C_17 
REMARK    6  A    between atoms: C_17  and  C_18 
REMARK    7  A    between atoms: C_18  and  C_19 
REMARK    8  A    between atoms: C_19  and  O_21 
REMARK    9  A    between atoms: C_28  and  C_29 
REMARK   10  A    between atoms: C_29  and  C_30 
REMARK   11  A    between atoms: C_30  and  C_31 
REMARK   12  A    between atoms: C_31  and  O_33 
REMARK   13  A    between atoms: C_42  and  C_43 
REMARK   14  A    between atoms: C_43  and  C_44 
REMARK   15  A    between atoms: C_44  and  C_45 
REMARK   16  A    between atoms: C_45  and  O_47 
ROOT
HETATM    1  C   UNK     0     -30.818   4.835   5.269  0.00  0.00     0.051 C 
HETATM    2  C   UNK     0     -31.669   6.075   5.446  0.00  0.00    -0.031 A 
HETATM    3  C   UNK     0     -31.290   7.357   5.812  0.00  0.00     0.021 A 
HETATM    4  N   UNK     0     -32.392   8.142   5.875  0.00  0.00    -0.361 N 
HETATM    5  C   UNK     0     -33.464   7.390   5.548  0.00  0.00     0.022 A 
HETATM    6  C   UNK     0     -33.047   6.091   5.276  0.00  0.00    -0.027 A 
HETATM    7  C   UNK     0     -34.894   7.795   5.376  0.00  0.00     0.115 C 
HETATM    8  C   UNK     0     -35.150   9.098   4.639  0.00  0.00     0.021 A 
HETATM    9  N   UNK     0     -34.471   9.622   3.606  0.00  0.00    -0.361 N 
HETATM   10  C   UNK     0     -34.993  10.837   3.334  0.00  0.00     0.022 A 
HETATM   11  C   UNK     0     -36.042  11.100   4.210  0.00  0.00    -0.027 A 
HETATM   12  C   UNK     0     -36.146  10.009   5.035  0.00  0.00    -0.031 A 
HETATM   13  C   UNK     0     -37.158   9.847   6.146  0.00  0.00     0.051 C 
HETATM   14  C   UNK     0     -34.491  11.817   2.278  0.00  0.00     0.115 C 
HETATM   15  C   UNK     0     -33.057  12.274   2.493  0.00  0.00     0.021 A 
HETATM   16  N   UNK     0     -31.952  11.508   2.561  0.00  0.00    -0.361 N 
HETATM   17  C   UNK     0     -30.898  12.281   2.831  0.00  0.00     0.022 A 
HETATM   18  C   UNK     0     -31.335  13.616   2.934  0.00  0.00    -0.027 A 
HETATM   19  C   UNK     0     -32.689  13.599   2.719  0.00  0.00    -0.031 A 
HETATM   20  C   UNK     0     -33.558  14.843   2.706  0.00  0.00     0.051 C 
HETATM   21  C   UNK     0     -29.455  11.905   3.077  0.00  0.00     0.115 C 
HETATM   22  C   UNK     0     -29.185  10.590   3.770  0.00  0.00     0.022 A 
HETATM   23  N   UNK     0     -29.846  10.042   4.798  0.00  0.00    -0.361 N 
HETATM   24  C   UNK     0     -29.361   8.801   5.000  0.00  0.00     0.021 A 
HETATM   25  C   UNK     0     -28.356   8.546   4.087  0.00  0.00    -0.031 A 
HETATM   26  C   UNK     0     -27.488   7.313   3.943  0.00  0.00     0.051 C 
HETATM   27  C   UNK     0     -28.224   9.677   3.289  0.00  0.00    -0.027 A 
HETATM   28  C   UNK     0     -29.854   7.760   5.991  0.00  0.00     0.115 C 
HETATM   29  H   UNK     0     -32.410   9.211   6.188  0.00  0.00     0.165 HD
HETATM   30  H   UNK     0     -33.656   9.114   3.033  0.00  0.00     0.165 HD
HETATM   31  H   UNK     0     -31.907  10.404   2.368  0.00  0.00     0.165 HD
HETATM   32  H   UNK     0     -30.633  10.544   5.419  0.00  0.00     0.165 HD
ENDROOT
BRANCH   6  33
HETATM   33  C   UNK     0     -33.850   4.879   4.875  0.00  0.00     0.051 C 
BRANCH  33  34
HETATM   34  C   UNK     0     -34.731   4.421   6.013  0.00  0.00     0.114 C 
BRANCH  34  35
HETATM   35  C   UNK     0     -33.929   3.480   6.847  0.00  0.00     0.139 C 
HETATM   36  O   UNK     0     -33.389   3.881   7.919  0.00  0.00    -0.650 OA
BRANCH  35  37
HETATM   37  O   UNK     0     -33.741   2.147   6.503  0.00  0.00    -0.776 OA
HETATM   38  H   UNK     0     -33.824   1.824   5.552  0.00  0.00     0.167 HD
ENDBRANCH  35  37
ENDBRANCH  34  35
ENDBRANCH  33  34
ENDBRANCH   6  33
BRANCH  27  39
HETATM   39  C   UNK     0     -27.187   9.805   2.230  0.00  0.00     0.051 C 
BRANCH  39  40
HETATM   40  C   UNK     0     -27.576   9.553   0.842  0.00  0.00     0.114 C 
BRANCH  40  41
HETATM   41  C   UNK     0     -28.331   8.383   0.454  0.00  0.00     0.139 C 
HETATM   42  O   UNK     0     -29.568   8.337   0.454  0.00  0.00    -0.650 OA
BRANCH  41  43
HETATM   43  O   UNK     0     -27.630   7.212   0.048  0.00  0.00    -0.776 OA
HETATM   44  H   UNK     0     -26.941   6.884   0.714  0.00  0.00     0.167 HD
ENDBRANCH  41  43
ENDBRANCH  40  41
ENDBRANCH  39  40
ENDBRANCH  27  39
BRANCH  11  45
HETATM   45  C   UNK     0     -36.924  12.317   4.285  0.00  0.00     0.051 C 
BRANCH  45  46
HETATM   46  C   UNK     0     -37.861  12.458   3.141  0.00  0.00     0.114 C 
BRANCH  46  47
HETATM   47  C   UNK     0     -39.217  12.705   3.710  0.00  0.00     0.139 C 
HETATM   48  O   UNK     0     -39.542  12.111   4.747  0.00  0.00    -0.650 OA
BRANCH  47  49
HETATM   49  O   UNK     0     -40.088  13.570   3.097  0.00  0.00    -0.776 OA
HETATM   50  H   UNK     0     -41.087  13.356   2.995  0.00  0.00     0.167 HD
ENDBRANCH  47  49
ENDBRANCH  46  47
ENDBRANCH  45  46
ENDBRANCH  11  45
BRANCH  18  51
HETATM   51  C   UNK     0     -30.505  14.845   3.201  0.00  0.00     0.051 C 
BRANCH  51  52
HETATM   52  C   UNK     0     -29.914  15.259   1.862  0.00  0.00     0.114 C 
BRANCH  52  53
HETATM   53  C   UNK     0     -30.550  16.482   1.335  0.00  0.00     0.139 C 
HETATM   54  O   UNK     0     -31.387  16.403   0.423  0.00  0.00    -0.650 OA
BRANCH  53  55
HETATM   55  O   UNK     0     -30.207  17.705   1.858  0.00  0.00    -0.776 OA
HETATM   56  H   UNK     0     -30.707  18.202   2.557  0.00  0.00     0.167 HD
ENDBRANCH  53  55
ENDBRANCH  52  53
ENDBRANCH  51  52
ENDBRANCH  18  51
TORSDOF 16
ENDMDL
MODEL 2
REMARK VINA RESULT:      -8.4     22.595     26.528
REMARK  16 active torsions:
REMARK  status: ('A' for Active; 'I' for Inactive)
REMARK    1  A    between atoms: C_6  and  C_7 
REMARK    2  A    between atoms: C_7  and  C_8 
REMARK    3  A    between atoms: C_8  and  C_9 
REMARK    4  A    between atoms: C_9  and  O_11 
REMARK    5  A    between atoms: C_16  and  C_17 
REMARK    6  A    between atoms: C_17  and  C_18 
REMARK    7  A    between atoms: C_18  and  C_19 
REMARK    8  A    between atoms: C_19  and  O_21 
REMARK    9  A    between atoms: C_28  and  C_29 
REMARK   10  A    between atoms: C_29  and  C_30 
REMARK   11  A    between atoms: C_30  and  C_31 
REMARK   12  A    between atoms: C_31  and  O_33 
REMARK   13  A    between atoms: C_42  and  C_43 
REMARK   14  A    between atoms: C_43  and  C_44 
REMARK   15  A    between atoms: C_44  and  C_45 
REMARK   16  A    between atoms: C_45  and  O_47 
ROOT
HETATM    1  C   UNK     0     -23.104  23.575  15.524  0.00  0.00     0.051 C 
HETATM    2  C   UNK     0     -22.299  24.676  16.184  0.00  0.00    -0.031 A 
HETATM    3  C   UNK     0     -22.060  25.971  15.753  0.00  0.00     0.021 A 
HETATM    4  N   UNK     0     -21.259  26.594  16.650  0.00  0.00    -0.361 N 
HETATM    5  C   UNK     0     -20.990  25.727  17.647  0.00  0.00     0.022 A 
HETATM    6  C   UNK     0     -21.623  24.516  17.387  0.00  0.00    -0.027 A 
HETATM    7  C   UNK     0     -20.233  25.946  18.920  0.00  0.00     0.115 C 
HETATM    8  C   UNK     0     -20.500  27.247  19.657  0.00  0.00     0.021 A 
HETATM    9  N   UNK     0     -21.654  27.922  19.771  0.00  0.00    -0.361 N 
HETATM   10  C   UNK     0     -21.404  29.070  20.434  0.00  0.00     0.022 A 
HETATM   11  C   UNK     0     -20.054  29.133  20.765  0.00  0.00    -0.027 A 
HETATM   12  C   UNK     0     -19.478  27.987  20.278  0.00  0.00    -0.031 A 
HETATM   13  C   UNK     0     -18.017  27.619  20.409  0.00  0.00     0.051 C 
HETATM   14  C   UNK     0     -22.413  30.175  20.735  0.00  0.00     0.115 C 
HETATM   15  C   UNK     0     -23.023  30.806  19.494  0.00  0.00     0.021 A 
HETATM   16  N   UNK     0     -23.719  30.193  18.518  0.00  0.00    -0.361 N 
HETATM   17  C   UNK     0     -24.021  31.083  17.570  0.00  0.00     0.022 A 
HETATM   18  C   UNK     0     -23.506  32.338  17.951  0.00  0.00    -0.027 A 
HETATM   19  C   UNK     0     -22.884  32.151  19.158  0.00  0.00    -0.031 A 
HETATM   20  C   UNK     0     -22.220  33.266  19.946  0.00  0.00     0.051 C 
HETATM   21  C   UNK     0     -24.722  30.890  16.245  0.00  0.00     0.115 C 
HETATM   22  C   UNK     0     -24.501  29.582  15.522  0.00  0.00     0.022 A 
HETATM   23  N   UNK     0     -23.364  28.886  15.396  0.00  0.00    -0.361 N 
HETATM   24  C   UNK     0     -23.651  27.710  14.801  0.00  0.00     0.021 A 
HETATM   25  C   UNK     0     -25.004  27.653  14.528  0.00  0.00    -0.031 A 
HETATM   26  C   UNK     0     -25.792  26.560  13.835  0.00  0.00     0.051 C 
HETATM   27  C   UNK     0     -25.570  28.840  14.980  0.00  0.00    -0.027 A 
HETATM   28  C   UNK     0     -22.708  26.552  14.528  0.00  0.00     0.115 C 
HETATM   29  H   UNK     0     -20.857  27.629  16.551  0.00  0.00     0.165 HD
HETATM   30  H   UNK     0     -22.657  27.567  19.427  0.00  0.00     0.165 HD
HETATM   31  H   UNK     0     -24.046  29.121  18.521  0.00  0.00     0.165 HD
HETATM   32  H   UNK     0     -22.340  29.236  15.687  0.00  0.00     0.165 HD
ENDROOT
BRANCH   6  33
HETATM   33  C   UNK     0     -21.631  23.235  18.182  0.00  0.00     0.051 C 
BRANCH  33  34
HETATM   34  C   UNK     0     -20.465  22.356  17.794  0.00  0.00     0.114 C 
BRANCH  34  35
HETATM   35  C   UNK     0     -19.646  22.134  19.020  0.00  0.00     0.139 C 
HETATM   36  O   UNK     0     -18.606  21.415  18.969  0.00  0.00    -0.650 OA
BRANCH  35  37
HETATM   37  O   UNK     0     -19.971  22.693  20.250  0.00  0.00    -0.776 OA
HETATM   38  H   UNK     0     -19.320  23.261  20.768  0.00  0.00     0.167 HD
ENDBRANCH  35  37
ENDBRANCH  34  35
ENDBRANCH  33  34
ENDBRANCH   6  33
BRANCH  27  39
HETATM   39  C   UNK     0     -27.008  29.175  14.795  0.00  0.00     0.051 C 
BRANCH  39  40
HETATM   40  C   UNK     0     -27.927  28.928  15.906  0.00  0.00     0.114 C 
BRANCH  40  41
HETATM   41  C   UNK     0     -27.889  29.705  17.124  0.00  0.00     0.139 C 
HETATM   42  O   UNK     0     -27.502  29.255  18.211  0.00  0.00    -0.650 OA
BRANCH  41  43
HETATM   43  O   UNK     0     -28.316  31.063  17.091  0.00  0.00    -0.776 OA
HETATM   44  H   UNK     0     -27.561  31.739  17.070  0.00  0.00     0.167 HD
ENDBRANCH  41  43
ENDBRANCH  40  41
ENDBRANCH  39  40
ENDBRANCH  27  39
BRANCH  11  45
HETATM   45  C   UNK     0     -19.315  30.212  21.509  0.00  0.00     0.051 C 
BRANCH  45  46
HETATM   46  C   UNK     0     -19.468  30.144  22.985  0.00  0.00     0.114 C 
BRANCH  46  47
HETATM   47  C   UNK     0     -19.109  31.486  23.529  0.00  0.00     0.139 C 
HETATM   48  O   UNK     0     -19.718  31.905  24.523  0.00  0.00    -0.650 OA
BRANCH  47  49
HETATM   49  O   UNK     0     -18.126  32.242  22.941  0.00  0.00    -0.776 OA
HETATM   50  H   UNK     0     -17.282  32.531  23.450  0.00  0.00     0.167 HD
ENDBRANCH  47  49
ENDBRANCH  46  47
ENDBRANCH  45  46
ENDBRANCH  11  45
BRANCH  18  51
HETATM   51  C   UNK     0     -23.618  33.648  17.214  0.00  0.00     0.051 C 
BRANCH  51  52
HETATM   52  C   UNK     0     -22.297  33.840  16.483  0.00  0.00     0.114 C 
BRANCH  52  53
HETATM   53  C   UNK     0     -21.743  35.191  16.695  0.00  0.00     0.139 C 
HETATM   54  O   UNK     0     -22.361  36.014  17.389  0.00  0.00    -0.650 OA
BRANCH  53  55
HETATM   55  O   UNK     0     -20.544  35.532  16.118  0.00  0.00    -0.776 OA
HETATM   56  H   UNK     0     -19.893  34.903  15.708  0.00  0.00     0.167 HD
ENDBRANCH  53  55
ENDBRANCH  52  53
ENDBRANCH  51  52
ENDBRANCH  18  51
TORSDOF 16
ENDMDL
MODEL 3
REMARK VINA RESULT:      -8.2     21.211     25.138
REMARK  16 active torsions:
REMARK  status: ('A' for Active; 'I' for Inactive)
REMARK    1  A    between atoms: C_6  and  C_7 
REMARK    2  A    between atoms: C_7  and  C_8 
REMARK    3  A    between atoms: C_8  and  C_9 
REMARK    4  A    between atoms: C_9  and  O_11 
REMARK    5  A    between atoms: C_16  and  C_17 
REMARK    6  A    between atoms: C_17  and  C_18 
REMARK    7  A    between atoms: C_18  and  C_19 
REMARK    8  A    between atoms: C_19  and  O_21 
REMARK    9  A    between atoms: C_28  and  C_29 
REMARK   10  A    between atoms: C_29  and  C_30 
REMARK   11  A    between atoms: C_30  and  C_31 
REMARK   12  A    between atoms: C_31  and  O_33 
REMARK   13  A    between atoms: C_42  and  C_43 
REMARK   14  A    between atoms: C_43  and  C_44 
REMARK   15  A    between atoms: C_44  and  C_45 
REMARK   16  A    between atoms: C_45  and  O_47 
ROOT
HETATM    1  C   UNK     0     -19.390  26.021  21.500  0.00  0.00     0.051 C 
HETATM    2  C   UNK     0     -19.982  27.067  20.577  0.00  0.00    -0.031 A 
HETATM    3  C   UNK     0     -20.124  27.044  19.199  0.00  0.00     0.021 A 
HETATM    4  N   UNK     0     -20.679  28.211  18.793  0.00  0.00    -0.361 N 
HETATM    5  C   UNK     0     -20.902  28.972  19.884  0.00  0.00     0.022 A 
HETATM    6  C   UNK     0     -20.475  28.288  21.017  0.00  0.00    -0.027 A 
HETATM    7  C   UNK     0     -21.578  30.303  19.993  0.00  0.00     0.115 C 
HETATM    8  C   UNK     0     -22.843  30.495  19.174  0.00  0.00     0.021 A 
HETATM    9  N   UNK     0     -23.798  29.597  18.889  0.00  0.00    -0.361 N 
HETATM   10  C   UNK     0     -24.686  30.179  18.056  0.00  0.00     0.022 A 
HETATM   11  C   UNK     0     -24.297  31.492  17.806  0.00  0.00    -0.027 A 
HETATM   12  C   UNK     0     -23.137  31.697  18.507  0.00  0.00    -0.031 A 
HETATM   13  C   UNK     0     -22.351  32.989  18.538  0.00  0.00     0.051 C 
HETATM   14  C   UNK     0     -25.903  29.509  17.424  0.00  0.00     0.115 C 
HETATM   15  C   UNK     0     -25.560  28.327  16.532  0.00  0.00     0.021 A 
HETATM   16  N   UNK     0     -24.899  27.205  16.874  0.00  0.00    -0.361 N 
HETATM   17  C   UNK     0     -24.739  26.443  15.790  0.00  0.00     0.022 A 
HETATM   18  C   UNK     0     -25.333  27.095  14.691  0.00  0.00    -0.027 A 
HETATM   19  C   UNK     0     -25.845  28.273  15.169  0.00  0.00    -0.031 A 
HETATM   20  C   UNK     0     -26.607  29.270  14.316  0.00  0.00     0.051 C 
HETATM   21  C   UNK     0     -24.008  25.130  15.624  0.00  0.00     0.115 C 
HETATM   22  C   UNK     0     -22.773  24.908  16.465  0.00  0.00     0.022 A 
HETATM   23  N   UNK     0     -21.807  25.785  16.768  0.00  0.00    -0.361 N 
HETATM   24  C   UNK     0     -20.977  25.208  17.660  0.00  0.00     0.021 A 
HETATM   25  C   UNK     0     -21.412  23.925  17.929  0.00  0.00    -0.031 A 
HETATM   26  C   UNK     0     -20.791  22.876  18.829  0.00  0.00     0.051 C 
HETATM   27  C   UNK     0     -22.560  23.709  17.176  0.00  0.00    -0.027 A 
HETATM   28  C   UNK     0     -19.789  25.838  18.367  0.00  0.00     0.115 C 
HETATM   29  H   UNK     0     -20.873  28.504  17.735  0.00  0.00     0.165 HD
HETATM   30  H   UNK     0     -23.876  28.566  19.314  0.00  0.00     0.165 HD
HETATM   31  H   UNK     0     -24.579  26.922  17.911  0.00  0.00     0.165 HD
HETATM   32  H   UNK     0     -21.678  26.805  16.323  0.00  0.00     0.165 HD
ENDROOT
BRANCH   6  33
HETATM   33  C   UNK     0     -20.497  28.703  22.466  0.00  0.00     0.051 C 
BRANCH  33  34
HETATM   34  C   UNK     0     -19.211  29.400  22.843  0.00  0.00     0.114 C 
BRANCH  34  35
HETATM   35  C   UNK     0     -19.478  30.867  22.829  0.00  0.00     0.139 C 
HETATM   36  O   UNK     0     -20.498  31.335  23.412  0.00  0.00    -0.650 OA
BRANCH  35  37
HETATM   37  O   UNK     0     -18.640  31.774  22.192  0.00  0.00    -0.776 OA
HETATM   38  H   UNK     0     -18.086  32.441  22.705  0.00  0.00     0.167 HD
ENDBRANCH  35  37
ENDBRANCH  34  35
ENDBRANCH  33  34
ENDBRANCH   6  33
BRANCH  27  39
HETATM   39  C   UNK     0     -23.280  22.407  17.148  0.00  0.00     0.051 C 
BRANCH  39  40
HETATM   40  C   UNK     0     -22.962  21.461  16.078  0.00  0.00     0.114 C 
BRANCH  40  41
HETATM   41  C   UNK     0     -23.340  21.698  14.703  0.00  0.00     0.139 C 
HETATM   42  O   UNK     0     -24.471  21.466  14.255  0.00  0.00    -0.650 OA
BRANCH  41  43
HETATM   43  O   UNK     0     -22.372  22.225  13.802  0.00  0.00    -0.776 OA
HETATM   44  H   UNK     0     -21.816  22.983  14.180  0.00  0.00     0.167 HD
ENDBRANCH  41  43
ENDBRANCH  40  41
ENDBRANCH  39  40
ENDBRANCH  27  39
BRANCH  11  45
HETATM   45  C   UNK     0     -24.974  32.528  16.949  0.00  0.00     0.051 C 
BRANCH  45  46
HETATM   46  C   UNK     0     -24.673  32.406  15.499  0.00  0.00     0.114 C 
BRANCH  46  47
HETATM   47  C   UNK     0     -24.200  33.741  15.033  0.00  0.00     0.139 C 
HETATM   48  O   UNK     0     -23.073  34.123  15.376  0.00  0.00    -0.650 OA
BRANCH  47  49
HETATM   49  O   UNK     0     -24.995  34.531  14.242  0.00  0.00    -0.776 OA
HETATM   50  H   UNK     0     -25.214  35.504  14.488  0.00  0.00     0.167 HD
ENDBRANCH  47  49
ENDBRANCH  46  47
ENDBRANCH  45  46
ENDBRANCH  11  45
BRANCH  18  51
HETATM   51  C   UNK     0     -25.427  26.612  13.267  0.00  0.00     0.051 C 
BRANCH  51  52
HETATM   52  C   UNK     0     -26.701  25.786  13.180  0.00  0.00     0.114 C 
BRANCH  52  53
HETATM   53  C   UNK     0     -26.425  24.338  13.259  0.00  0.00     0.139 C 
HETATM   54  O   UNK     0     -27.099  23.618  14.013  0.00  0.00    -0.650 OA
BRANCH  53  55
HETATM   55  O   UNK     0     -25.418  23.796  12.499  0.00  0.00    -0.776 OA
HETATM   56  H   UNK     0     -25.489  23.518  11.549  0.00  0.00     0.167 HD
ENDBRANCH  53  55
ENDBRANCH  52  53
ENDBRANCH  51  52
ENDBRANCH  18  51
TORSDOF 16
ENDMDL
MODEL 4
REMARK VINA RESULT:      -8.1     22.492     26.333
REMARK  16 active torsions:
REMARK  status: ('A' for Active; 'I' for Inactive)
REMARK    1  A    between atoms: C_6  and  C_7 
REMARK    2  A    between atoms: C_7  and  C_8 
REMARK    3  A    between atoms: C_8  and  C_9 
REMARK    4  A    between atoms: C_9  and  O_11 
REMARK    5  A    between atoms: C_16  and  C_17 
REMARK    6  A    between atoms: C_17  and  C_18 
REMARK    7  A    between atoms: C_18  and  C_19 
REMARK    8  A    between atoms: C_19  and  O_21 
REMARK    9  A    between atoms: C_28  and  C_29 
REMARK   10  A    between atoms: C_29  and  C_30 
REMARK   11  A    between atoms: C_30  and  C_31 
REMARK   12  A    between atoms: C_31  and  O_33 
REMARK   13  A    between atoms: C_42  and  C_43 
REMARK   14  A    between atoms: C_43  and  C_44 
REMARK   15  A    between atoms: C_44  and  C_45 
REMARK   16  A    between atoms: C_45  and  O_47 
ROOT
HETATM    1  C   UNK     0     -22.602  23.313  16.408  0.00  0.00     0.051 C 
HETATM    2  C   UNK     0     -21.851  24.515  16.942  0.00  0.00    -0.031 A 
HETATM    3  C   UNK     0     -21.703  25.777  16.389  0.00  0.00     0.021 A 
HETATM    4  N   UNK     0     -20.920  26.526  17.201  0.00  0.00    -0.361 N 
HETATM    5  C   UNK     0     -20.574  25.772  18.265  0.00  0.00     0.022 A 
HETATM    6  C   UNK     0     -21.137  24.507  18.134  0.00  0.00    -0.027 A 
HETATM    7  C   UNK     0     -19.802  26.152  19.490  0.00  0.00     0.115 C 
HETATM    8  C   UNK     0     -20.130  27.497  20.113  0.00  0.00     0.021 A 
HETATM    9  N   UNK     0     -21.321  28.110  20.200  0.00  0.00    -0.361 N 
HETATM   10  C   UNK     0     -21.127  29.328  20.749  0.00  0.00     0.022 A 
HETATM   11  C   UNK     0     -19.775  29.500  21.033  0.00  0.00    -0.027 A 
HETATM   12  C   UNK     0     -19.142  28.351  20.635  0.00  0.00    -0.031 A 
HETATM   13  C   UNK     0     -17.658  28.084  20.755  0.00  0.00     0.051 C 
HETATM   14  C   UNK     0     -22.195  30.394  20.979  0.00  0.00     0.115 C 
HETATM   15  C   UNK     0     -22.873  30.871  19.705  0.00  0.00     0.021 A 
HETATM   16  N   UNK     0     -23.553  30.130  18.809  0.00  0.00    -0.361 N 
HETATM   17  C   UNK     0     -23.932  30.909  17.794  0.00  0.00     0.022 A 
HETATM   18  C   UNK     0     -23.486  32.222  18.044  0.00  0.00    -0.027 A 
HETATM   19  C   UNK     0     -22.825  32.185  19.245  0.00  0.00    -0.031 A 
HETATM   20  C   UNK     0     -22.212  33.404  19.909  0.00  0.00     0.051 C 
HETATM   21  C   UNK     0     -24.652  30.554  16.513  0.00  0.00     0.115 C 
HETATM   22  C   UNK     0     -24.368  29.200  15.905  0.00  0.00     0.022 A 
HETATM   23  N   UNK     0     -23.193  28.564  15.809  0.00  0.00    -0.361 N 
HETATM   24  C   UNK     0     -23.421  27.324  15.331  0.00  0.00     0.021 A 
HETATM   25  C   UNK     0     -24.775  27.162  15.105  0.00  0.00    -0.031 A 
HETATM   26  C   UNK     0     -25.509  25.965  14.537  0.00  0.00     0.051 C 
HETATM   27  C   UNK     0     -25.401  28.349  15.465  0.00  0.00    -0.027 A 
HETATM   28  C   UNK     0     -22.415  26.203  15.136  0.00  0.00     0.115 C 
HETATM   29  H   UNK     0     -20.586  27.570  16.998  0.00  0.00     0.165 HD
HETATM   30  H   UNK     0     -22.308  27.666  19.920  0.00  0.00     0.165 HD
HETATM   31  H   UNK     0     -23.812  29.045  18.918  0.00  0.00     0.165 HD
HETATM   32  H   UNK     0     -22.186  29.000  16.037  0.00  0.00     0.165 HD
ENDROOT
BRANCH   6  33
HETATM   33  C   UNK     0     -21.047  23.307  19.041  0.00  0.00     0.051 C 
BRANCH  33  34
HETATM   34  C   UNK     0     -19.606  22.917  19.272  0.00  0.00     0.114 C 
BRANCH  34  35
HETATM   35  C   UNK     0     -19.295  21.790  18.347  0.00  0.00     0.139 C 
HETATM   36  O   UNK     0     -18.782  22.019  17.213  0.00  0.00    -0.650 OA
BRANCH  35  37
HETATM   37  O   UNK     0     -19.543  20.462  18.673  0.00  0.00    -0.776 OA
HETATM   38  H   UNK     0     -20.451  20.043  18.555  0.00  0.00     0.167 HD
ENDBRANCH  35  37
ENDBRANCH  34  35
ENDBRANCH  33  34
ENDBRANCH   6  33
BRANCH  27  39
HETATM   39  C   UNK     0     -26.862  28.580  15.293  0.00  0.00     0.051 C 
BRANCH  39  40
HETATM   40  C   UNK     0     -27.336  29.099  14.011  0.00  0.00     0.114 C 
BRANCH  40  41
HETATM   41  C   UNK     0     -28.253  28.360  13.172  0.00  0.00     0.139 C 
HETATM   42  O   UNK     0     -27.888  27.613  12.253  0.00  0.00    -0.650 OA
BRANCH  41  43
HETATM   43  O   UNK     0     -29.653  28.486  13.399  0.00  0.00    -0.776 OA
HETATM   44  H   UNK     0     -30.194  27.668  13.143  0.00  0.00     0.167 HD
ENDBRANCH  41  43
ENDBRANCH  40  41
ENDBRANCH  39  40
ENDBRANCH  27  39
BRANCH  11  45
HETATM   45  C   UNK     0     -19.087  30.686  21.654  0.00  0.00     0.051 C 
BRANCH  45  46
HETATM   46  C   UNK     0     -18.913  30.583  23.125  0.00  0.00     0.114 C 
BRANCH  46  47
HETATM   47  C   UNK     0     -20.113  31.203  23.757  0.00  0.00     0.139 C 
HETATM   48  O   UNK     0     -20.954  30.461  24.285  0.00  0.00    -0.650 OA
BRANCH  47  49
HETATM   49  O   UNK     0     -20.285  32.564  23.752  0.00  0.00    -0.776 OA
HETATM   50  H   UNK     0     -20.808  33.050  24.491  0.00  0.00     0.167 HD
ENDBRANCH  47  49
ENDBRANCH  46  47
ENDBRANCH  45  46
ENDBRANCH  11  45
BRANCH  18  51
HETATM   51  C   UNK     0     -23.697  33.450  17.196  0.00  0.00     0.051 C 
BRANCH  51  52
HETATM   52  C   UNK     0     -22.374  33.713  16.491  0.00  0.00     0.114 C 
BRANCH  52  53
HETATM   53  C   UNK     0     -21.881  35.081  16.741  0.00  0.00     0.139 C 
HETATM   54  O   UNK     0     -22.568  35.878  17.400  0.00  0.00    -0.650 OA
BRANCH  53  55
HETATM   55  O   UNK     0     -20.663  35.467  16.238  0.00  0.00    -0.776 OA
HETATM   56  H   UNK     0     -20.515  36.058  15.454  0.00  0.00     0.167 HD
ENDBRANCH  53  55
ENDBRANCH  52  53
ENDBRANCH  51  52
ENDBRANCH  18  51
TORSDOF 16
ENDMDL
MODEL 5
REMARK VINA RESULT:      -8.0     21.889     26.034
REMARK  16 active torsions:
REMARK  status: ('A' for Active; 'I' for Inactive)
REMARK    1  A    between atoms: C_6  and  C_7 
REMARK    2  A    between atoms: C_7  and  C_8 
REMARK    3  A    between atoms: C_8  and  C_9 
REMARK    4  A    between atoms: C_9  and  O_11 
REMARK    5  A    between atoms: C_16  and  C_17 
REMARK    6  A    between atoms: C_17  and  C_18 
REMARK    7  A    between atoms: C_18  and  C_19 
REMARK    8  A    between atoms: C_19  and  O_21 
REMARK    9  A    between atoms: C_28  and  C_29 
REMARK   10  A    between atoms: C_29  and  C_30 
REMARK   11  A    between atoms: C_30  and  C_31 
REMARK   12  A    between atoms: C_31  and  O_33 
REMARK   13  A    between atoms: C_42  and  C_43 
REMARK   14  A    between atoms: C_43  and  C_44 
REMARK   15  A    between atoms: C_44  and  C_45 
REMARK   16  A    between atoms: C_45  and  O_47 
ROOT
HETATM    1  C   UNK     0     -19.346  30.297  21.244  0.00  0.00     0.051 C 
HETATM    2  C   UNK     0     -20.219  29.199  20.670  0.00  0.00    -0.031 A 
HETATM    3  C   UNK     0     -21.585  29.192  20.440  0.00  0.00     0.021 A 
HETATM    4  N   UNK     0     -21.943  27.983  19.944  0.00  0.00    -0.361 N 
HETATM    5  C   UNK     0     -20.832  27.224  19.844  0.00  0.00     0.022 A 
HETATM    6  C   UNK     0     -19.736  27.953  20.293  0.00  0.00    -0.027 A 
HETATM    7  C   UNK     0     -20.666  25.851  19.271  0.00  0.00     0.115 C 
HETATM    8  C   UNK     0     -21.400  25.560  17.974  0.00  0.00     0.021 A 
HETATM    9  N   UNK     0     -21.632  26.386  16.942  0.00  0.00    -0.361 N 
HETATM   10  C   UNK     0     -22.400  25.730  16.046  0.00  0.00     0.022 A 
HETATM   11  C   UNK     0     -22.662  24.444  16.509  0.00  0.00    -0.027 A 
HETATM   12  C   UNK     0     -22.034  24.330  17.724  0.00  0.00    -0.031 A 
HETATM   13  C   UNK     0     -22.040  23.097  18.598  0.00  0.00     0.051 C 
HETATM   14  C   UNK     0     -22.960  26.305  14.748  0.00  0.00     0.115 C 
HETATM   15  C   UNK     0     -23.884  27.495  14.949  0.00  0.00     0.021 A 
HETATM   16  N   UNK     0     -23.597  28.665  15.550  0.00  0.00    -0.361 N 
HETATM   17  C   UNK     0     -24.697  29.420  15.587  0.00  0.00     0.022 A 
HETATM   18  C   UNK     0     -25.749  28.713  14.972  0.00  0.00    -0.027 A 
HETATM   19  C   UNK     0     -25.226  27.509  14.576  0.00  0.00    -0.031 A 
HETATM   20  C   UNK     0     -26.018  26.449  13.833  0.00  0.00     0.051 C 
HETATM   21  C   UNK     0     -24.923  30.778  16.212  0.00  0.00     0.115 C 
HETATM   22  C   UNK     0     -24.165  31.098  17.479  0.00  0.00     0.022 A 
HETATM   23  N   UNK     0     -23.915  30.295  18.522  0.00  0.00    -0.361 N 
HETATM   24  C   UNK     0     -23.085  30.941  19.365  0.00  0.00     0.021 A 
HETATM   25  C   UNK     0     -22.801  32.195  18.858  0.00  0.00    -0.031 A 
HETATM   26  C   UNK     0     -21.954  33.297  19.459  0.00  0.00     0.051 C 
HETATM   27  C   UNK     0     -23.482  32.319  17.652  0.00  0.00    -0.027 A 
HETATM   28  C   UNK     0     -22.449  30.405  20.636  0.00  0.00     0.115 C 
HETATM   29  H   UNK     0     -22.983  27.662  19.704  0.00  0.00     0.165 HD
HETATM   30  H   UNK     0     -21.214  27.415  16.819  0.00  0.00     0.165 HD
HETATM   31  H   UNK     0     -22.586  28.985  15.914  0.00  0.00     0.165 HD
HETATM   32  H   UNK     0     -24.358  29.279  18.693  0.00  0.00     0.165 HD
ENDROOT
BRANCH   6  33
HETATM   33  C   UNK     0     -18.284  27.559  20.392  0.00  0.00     0.051 C 
BRANCH  33  34
HETATM   34  C   UNK     0     -17.776  27.736  21.803  0.00  0.00     0.114 C 
BRANCH  34  35
HETATM   35  C   UNK     0     -18.417  26.684  22.643  0.00  0.00     0.139 C 
HETATM   36  O   UNK     0     -18.658  26.905  23.866  0.00  0.00    -0.650 OA
BRANCH  35  37
HETATM   37  O   UNK     0     -18.776  25.440  22.141  0.00  0.00    -0.776 OA
HETATM   38  H   UNK     0     -18.410  25.089  21.271  0.00  0.00     0.167 HD
ENDBRANCH  35  37
ENDBRANCH  34  35
ENDBRANCH  33  34
ENDBRANCH   6  33
BRANCH  27  39
HETATM   39  C   UNK     0     -23.477  33.568  16.843  0.00  0.00     0.051 C 
BRANCH  39  40
HETATM   40  C   UNK     0     -22.206  34.024  16.280  0.00  0.00     0.114 C 
BRANCH  40  41
HETATM   41  C   UNK     0     -21.703  35.362  16.498  0.00  0.00     0.139 C 
HETATM   42  O   UNK     0     -22.246  36.182  17.250  0.00  0.00    -0.650 OA
BRANCH  41  43
HETATM   43  O   UNK     0     -20.521  35.775  15.820  0.00  0.00    -0.776 OA
HETATM   44  H   UNK     0     -20.433  35.417  14.877  0.00  0.00     0.167 HD
ENDBRANCH  41  43
ENDBRANCH  40  41
ENDBRANCH  39  40
ENDBRANCH  27  39
BRANCH  11  45
HETATM   45  C   UNK     0     -23.463  23.352  15.854  0.00  0.00     0.051 C 
BRANCH  45  46
HETATM   46  C   UNK     0     -22.647  22.387  15.074  0.00  0.00     0.114 C 
BRANCH  46  47
HETATM   47  C   UNK     0     -22.941  22.624  13.631  0.00  0.00     0.139 C 
HETATM   48  O   UNK     0     -23.885  22.013  13.111  0.00  0.00    -0.650 OA
BRANCH  47  49
HETATM   49  O   UNK     0     -22.183  23.498  12.894  0.00  0.00    -0.776 OA
HETATM   50  H   UNK     0     -22.582  24.346  12.475  0.00  0.00     0.167 HD
ENDBRANCH  47  49
ENDBRANCH  46  47
ENDBRANCH  45  46
ENDBRANCH  11  45
BRANCH  18  51
HETATM   51  C   UNK     0     -27.169  29.167  14.755  0.00  0.00     0.051 C 
BRANCH  51  52
HETATM   52  C   UNK     0     -27.976  28.615  15.921  0.00  0.00     0.114 C 
BRANCH  52  53
HETATM   53  C   UNK     0     -27.948  29.521  17.085  0.00  0.00     0.139 C 
HETATM   54  O   UNK     0     -27.459  29.137  18.159  0.00  0.00    -0.650 OA
BRANCH  53  55
HETATM   55  O   UNK     0     -28.470  30.787  16.974  0.00  0.00    -0.776 OA
HETATM   56  H   UNK     0     -29.426  31.014  16.832  0.00  0.00     0.167 HD
ENDBRANCH  53  55
ENDBRANCH  52  53
ENDBRANCH  51  52
ENDBRANCH  18  51
TORSDOF 16
ENDMDL
MODEL 6
REMARK VINA RESULT:      -8.0     16.167     20.504
REMARK  16 active torsions:
REMARK  status: ('A' for Active; 'I' for Inactive)
REMARK    1  A    between atoms: C_6  and  C_7 
REMARK    2  A    between atoms: C_7  and  C_8 
REMARK    3  A    between atoms: C_8  and  C_9 
REMARK    4  A    between atoms: C_9  and  O_11 
REMARK    5  A    between atoms: C_16  and  C_17 
REMARK    6  A    between atoms: C_17  and  C_18 
REMARK    7  A    between atoms: C_18  and  C_19 
REMARK    8  A    between atoms: C_19  and  O_21 
REMARK    9  A    between atoms: C_28  and  C_29 
REMARK   10  A    between atoms: C_29  and  C_30 
REMARK   11  A    between atoms: C_30  and  C_31 
REMARK   12  A    between atoms: C_31  and  O_33 
REMARK   13  A    between atoms: C_42  and  C_43 
REMARK   14  A    between atoms: C_43  and  C_44 
REMARK   15  A    between atoms: C_44  and  C_45 
REMARK   16  A    between atoms: C_45  and  O_47 
ROOT
HETATM    1  C   UNK     0     -26.190  24.097  -4.470  0.00  0.00     0.051 C 
HETATM    2  C   UNK     0     -25.697  24.175  -3.040  0.00  0.00    -0.031 A 
HETATM    3  C   UNK     0     -24.418  24.414  -2.563  0.00  0.00     0.021 A 
HETATM    4  N   UNK     0     -24.435  24.363  -1.209  0.00  0.00    -0.361 N 
HETATM    5  C   UNK     0     -25.699  24.105  -0.814  0.00  0.00     0.022 A 
HETATM    6  C   UNK     0     -26.514  23.979  -1.934  0.00  0.00    -0.027 A 
HETATM    7  C   UNK     0     -26.269  24.040   0.568  0.00  0.00     0.115 C 
HETATM    8  C   UNK     0     -25.815  25.111   1.544  0.00  0.00     0.021 A 
HETATM    9  N   UNK     0     -25.536  26.401   1.300  0.00  0.00    -0.361 N 
HETATM   10  C   UNK     0     -25.081  26.955   2.444  0.00  0.00     0.022 A 
HETATM   11  C   UNK     0     -25.075  25.998   3.454  0.00  0.00    -0.027 A 
HETATM   12  C   UNK     0     -25.537  24.834   2.895  0.00  0.00    -0.031 A 
HETATM   13  C   UNK     0     -25.707  23.521   3.625  0.00  0.00     0.051 C 
HETATM   14  C   UNK     0     -24.584  28.388   2.615  0.00  0.00     0.115 C 
HETATM   15  C   UNK     0     -23.382  28.731   1.751  0.00  0.00     0.021 A 
HETATM   16  N   UNK     0     -23.292  28.673   0.409  0.00  0.00    -0.361 N 
HETATM   17  C   UNK     0     -22.048  28.986   0.039  0.00  0.00     0.022 A 
HETATM   18  C   UNK     0     -21.294  29.271   1.195  0.00  0.00    -0.027 A 
HETATM   19  C   UNK     0     -22.141  29.108   2.260  0.00  0.00    -0.031 A 
HETATM   20  C   UNK     0     -21.739  29.353   3.703  0.00  0.00     0.051 C 
HETATM   21  C   UNK     0     -21.416  28.999  -1.334  0.00  0.00     0.115 C 
HETATM   22  C   UNK     0     -21.891  27.967  -2.330  0.00  0.00     0.022 A 
HETATM   23  N   UNK     0     -22.180  26.677  -2.114  0.00  0.00    -0.361 N 
HETATM   24  C   UNK     0     -22.705  26.165  -3.246  0.00  0.00     0.021 A 
HETATM   25  C   UNK     0     -22.745  27.147  -4.217  0.00  0.00    -0.031 A 
HETATM   26  C   UNK     0     -23.210  27.046  -5.655  0.00  0.00     0.051 C 
HETATM   27  C   UNK     0     -22.229  28.309  -3.655  0.00  0.00    -0.027 A 
HETATM   28  C   UNK     0     -23.268  24.771  -3.462  0.00  0.00     0.115 C 
HETATM   29  H   UNK     0     -23.547  24.470  -0.545  0.00  0.00     0.165 HD
HETATM   30  H   UNK     0     -25.706  26.936   0.334  0.00  0.00     0.165 HD
HETATM   31  H   UNK     0     -24.135  28.453  -0.296  0.00  0.00     0.165 HD
HETATM   32  H   UNK     0     -21.976  26.103  -1.173  0.00  0.00     0.165 HD
ENDROOT
BRANCH   6  33
HETATM   33  C   UNK     0     -27.990  23.687  -2.032  0.00  0.00     0.051 C 
BRANCH  33  34
HETATM   34  C   UNK     0     -28.770  24.955  -2.282  0.00  0.00     0.114 C 
BRANCH  34  35
HETATM   35  C   UNK     0     -29.041  25.582  -0.956  0.00  0.00     0.139 C 
HETATM   36  O   UNK     0     -29.960  25.129  -0.214  0.00  0.00    -0.650 OA
BRANCH  35  37
HETATM   37  O   UNK     0     -28.316  26.666  -0.478  0.00  0.00    -0.776 OA
HETATM   38  H   UNK     0     -27.309  26.676  -0.476  0.00  0.00     0.167 HD
ENDBRANCH  35  37
ENDBRANCH  34  35
ENDBRANCH  33  34
ENDBRANCH   6  33
BRANCH  27  39
HETATM   39  C   UNK     0     -22.045  29.569  -4.424  0.00  0.00     0.051 C 
BRANCH  39  40
HETATM   40  C   UNK     0     -23.073  30.604  -4.317  0.00  0.00     0.114 C 
BRANCH  40  41
HETATM   41  C   UNK     0     -22.760  32.013  -4.402  0.00  0.00     0.139 C 
HETATM   42  O   UNK     0     -22.881  32.798  -3.452  0.00  0.00    -0.650 OA
BRANCH  41  43
HETATM   43  O   UNK     0     -22.288  32.543  -5.636  0.00  0.00    -0.776 OA
HETATM   44  H   UNK     0     -22.999  32.636  -6.352  0.00  0.00     0.167 HD
ENDBRANCH  41  43
ENDBRANCH  40  41
ENDBRANCH  39  40
ENDBRANCH  27  39
BRANCH  11  45
HETATM   45  C   UNK     0     -24.660  26.151   4.893  0.00  0.00     0.051 C 
BRANCH  45  46
HETATM   46  C   UNK     0     -23.190  26.177   5.100  0.00  0.00     0.114 C 
BRANCH  46  47
HETATM   47  C   UNK     0     -22.843  25.006   5.955  0.00  0.00     0.139 C 
HETATM   48  O   UNK     0     -23.729  24.179   6.214  0.00  0.00    -0.650 OA
BRANCH  47  49
HETATM   49  O   UNK     0     -21.572  24.845   6.445  0.00  0.00    -0.776 OA
HETATM   50  H   UNK     0     -21.343  25.011   7.432  0.00  0.00     0.167 HD
ENDBRANCH  47  49
ENDBRANCH  46  47
ENDBRANCH  45  46
ENDBRANCH  11  45
BRANCH  18  51
HETATM   51  C   UNK     0     -19.850  29.695   1.278  0.00  0.00     0.051 C 
BRANCH  51  52
HETATM   52  C   UNK     0     -19.079  28.485   1.785  0.00  0.00     0.114 C 
BRANCH  52  53
HETATM   53  C   UNK     0     -17.629  28.748   1.857  0.00  0.00     0.139 C 
HETATM   54  O   UNK     0     -16.903  28.039   2.572  0.00  0.00    -0.650 OA
BRANCH  53  55
HETATM   55  O   UNK     0     -17.090  29.784   1.134  0.00  0.00    -0.776 OA
HETATM   56  H   UNK     0     -17.451  30.707   1.076  0.00  0.00     0.167 HD
ENDBRANCH  53  55
ENDBRANCH  52  53
ENDBRANCH  51  52
ENDBRANCH  18  51
TORSDOF 16
ENDMDL
MODEL 7
REMARK VINA RESULT:      -7.9     17.508     20.127
REMARK  16 active torsions:
REMARK  status: ('A' for Active; 'I' for Inactive)
REMARK    1  A    between atoms: C_6  and  C_7 
REMARK    2  A    between atoms: C_7  and  C_8 
REMARK    3  A    between atoms: C_8  and  C_9 
REMARK    4  A    between atoms: C_9  and  O_11 
REMARK    5  A    between atoms: C_16  and  C_17 
REMARK    6  A    between atoms: C_17  and  C_18 
REMARK    7  A    between atoms: C_18  and  C_19 
REMARK    8  A    between atoms: C_19  and  O_21 
REMARK    9  A    between atoms: C_28  and  C_29 
REMARK   10  A    between atoms: C_29  and  C_30 
REMARK   11  A    between atoms: C_30  and  C_31 
REMARK   12  A    between atoms: C_31  and  O_33 
REMARK   13  A    between atoms: C_42  and  C_43 
REMARK   14  A    between atoms: C_43  and  C_44 
REMARK   15  A    between atoms: C_44  and  C_45 
REMARK   16  A    between atoms: C_45  and  O_47 
ROOT
HETATM    1  C   UNK     0     -18.786  20.431  21.260  0.00  0.00     0.051 C 
HETATM    2  C   UNK     0     -20.071  19.665  21.022  0.00  0.00    -0.031 A 
HETATM    3  C   UNK     0     -21.314  20.133  20.627  0.00  0.00     0.021 A 
HETATM    4  N   UNK     0     -22.180  19.093  20.571  0.00  0.00    -0.361 N 
HETATM    5  C   UNK     0     -21.514  17.971  20.915  0.00  0.00     0.022 A 
HETATM    6  C   UNK     0     -20.192  18.293  21.206  0.00  0.00    -0.027 A 
HETATM    7  C   UNK     0     -21.983  16.550  20.923  0.00  0.00     0.115 C 
HETATM    8  C   UNK     0     -22.823  16.103  19.740  0.00  0.00     0.021 A 
HETATM    9  N   UNK     0     -22.717  16.469  18.453  0.00  0.00    -0.361 N 
HETATM   10  C   UNK     0     -23.730  15.896  17.769  0.00  0.00     0.022 A 
HETATM   11  C   UNK     0     -24.504  15.131  18.637  0.00  0.00    -0.027 A 
HETATM   12  C   UNK     0     -23.938  15.257  19.880  0.00  0.00    -0.031 A 
HETATM   13  C   UNK     0     -24.442  14.593  21.142  0.00  0.00     0.051 C 
HETATM   14  C   UNK     0     -24.039  16.087  16.287  0.00  0.00     0.115 C 
HETATM   15  C   UNK     0     -24.346  17.525  15.902  0.00  0.00     0.021 A 
HETATM   16  N   UNK     0     -23.556  18.604  16.058  0.00  0.00    -0.361 N 
HETATM   17  C   UNK     0     -24.217  19.693  15.660  0.00  0.00     0.022 A 
HETATM   18  C   UNK     0     -25.496  19.304  15.215  0.00  0.00    -0.027 A 
HETATM   19  C   UNK     0     -25.564  17.944  15.370  0.00  0.00    -0.031 A 
HETATM   20  C   UNK     0     -26.767  17.108  14.975  0.00  0.00     0.051 C 
HETATM   21  C   UNK     0     -23.806  21.147  15.697  0.00  0.00     0.115 C 
HETATM   22  C   UNK     0     -22.933  21.596  16.846  0.00  0.00     0.022 A 
HETATM   23  N   UNK     0     -23.013  21.245  18.136  0.00  0.00    -0.361 N 
HETATM   24  C   UNK     0     -21.950  21.764  18.783  0.00  0.00     0.021 A 
HETATM   25  C   UNK     0     -21.172  22.476  17.890  0.00  0.00    -0.031 A 
HETATM   26  C   UNK     0     -19.907  23.267  18.148  0.00  0.00     0.051 C 
HETATM   27  C   UNK     0     -21.781  22.383  16.643  0.00  0.00    -0.027 A 
HETATM   28  C   UNK     0     -21.557  21.563  20.236  0.00  0.00     0.115 C 
HETATM   29  H   UNK     0     -23.266  19.165  20.329  0.00  0.00     0.165 HD
HETATM   30  H   UNK     0     -21.900  17.093  18.015  0.00  0.00     0.165 HD
HETATM   31  H   UNK     0     -22.492  18.591  16.411  0.00  0.00     0.165 HD
HETATM   32  H   UNK     0     -23.844  20.662  18.611  0.00  0.00     0.165 HD
ENDROOT
BRANCH   6  33
HETATM   33  C   UNK     0     -19.052  17.409  21.642  0.00  0.00     0.051 C 
BRANCH  33  34
HETATM   34  C   UNK     0     -19.086  17.189  23.136  0.00  0.00     0.114 C 
BRANCH  34  35
HETATM   35  C   UNK     0     -18.058  18.083  23.742  0.00  0.00     0.139 C 
HETATM   36  O   UNK     0     -18.218  18.535  24.913  0.00  0.00    -0.650 OA
BRANCH  35  37
HETATM   37  O   UNK     0     -16.899  18.455  23.072  0.00  0.00    -0.776 OA
HETATM   38  H   UNK     0     -16.306  17.781  22.616  0.00  0.00     0.167 HD
ENDBRANCH  35  37
ENDBRANCH  34  35
ENDBRANCH  33  34
ENDBRANCH   6  33
BRANCH  27  39
HETATM   39  C   UNK     0     -21.268  23.087  15.436  0.00  0.00     0.051 C 
BRANCH  39  40
HETATM   40  C   UNK     0     -22.079  24.161  14.862  0.00  0.00     0.114 C 
BRANCH  40  41
HETATM   41  C   UNK     0     -22.953  23.945  13.731  0.00  0.00     0.139 C 
HETATM   42  O   UNK     0     -23.940  24.652  13.485  0.00  0.00    -0.650 OA
BRANCH  41  43
HETATM   43  O   UNK     0     -22.680  22.868  12.842  0.00  0.00    -0.776 OA
HETATM   44  H   UNK     0     -23.437  22.202  12.744  0.00  0.00     0.167 HD
ENDBRANCH  41  43
ENDBRANCH  40  41
ENDBRANCH  39  40
ENDBRANCH  27  39
BRANCH  11  45
HETATM   45  C   UNK     0     -25.726  14.307  18.332  0.00  0.00     0.051 C 
BRANCH  45  46
HETATM   46  C   UNK     0     -26.979  15.098  18.224  0.00  0.00     0.114 C 
BRANCH  46  47
HETATM   47  C   UNK     0     -28.111  14.129  18.194  0.00  0.00     0.139 C 
HETATM   48  O   UNK     0     -29.125  14.422  17.544  0.00  0.00    -0.650 OA
BRANCH  47  49
HETATM   49  O   UNK     0     -28.035  12.938  18.871  0.00  0.00    -0.776 OA
HETATM   50  H   UNK     0     -27.152  12.586  19.258  0.00  0.00     0.167 HD
ENDBRANCH  47  49
ENDBRANCH  46  47
ENDBRANCH  45  46
ENDBRANCH  11  45
BRANCH  18  51
HETATM   51  C   UNK     0     -26.586  20.179  14.651  0.00  0.00     0.051 C 
BRANCH  51  52
HETATM   52  C   UNK     0     -26.169  20.515  13.227  0.00  0.00     0.114 C 
BRANCH  52  53
HETATM   53  C   UNK     0     -26.392  21.939  12.912  0.00  0.00     0.139 C 
HETATM   54  O   UNK     0     -27.406  22.518  13.334  0.00  0.00    -0.650 OA
BRANCH  53  55
HETATM   55  O   UNK     0     -25.475  22.617  12.146  0.00  0.00    -0.776 OA
HETATM   56  H   UNK     0     -24.970  23.427  12.420  0.00  0.00     0.167 HD
ENDBRANCH  53  55
ENDBRANCH  52  53
ENDBRANCH  51  52
ENDBRANCH  18  51
TORSDOF 16
ENDMDL
MODEL 8
REMARK VINA RESULT:      -7.9     21.324     24.964
REMARK  16 active torsions:
REMARK  status: ('A' for Active; 'I' for Inactive)
REMARK    1  A    between atoms: C_6  and  C_7 
REMARK    2  A    between atoms: C_7  and  C_8 
REMARK    3  A    between atoms: C_8  and  C_9 
REMARK    4  A    between atoms: C_9  and  O_11 
REMARK    5  A    between atoms: C_16  and  C_17 
REMARK    6  A    between atoms: C_17  and  C_18 
REMARK    7  A    between atoms: C_18  and  C_19 
REMARK    8  A    between atoms: C_19  and  O_21 
REMARK    9  A    between atoms: C_28  and  C_29 
REMARK   10  A    between atoms: C_29  and  C_30 
REMARK   11  A    between atoms: C_30  and  C_31 
REMARK   12  A    between atoms: C_31  and  O_33 
REMARK   13  A    between atoms: C_42  and  C_43 
REMARK   14  A    between atoms: C_43  and  C_44 
REMARK   15  A    between atoms: C_44  and  C_45 
REMARK   16  A    between atoms: C_45  and  O_47 
ROOT
HETATM    1  C   UNK     0     -19.940  23.498  20.967  0.00  0.00     0.051 C 
HETATM    2  C   UNK     0     -20.132  24.906  20.441  0.00  0.00    -0.031 A 
HETATM    3  C   UNK     0     -20.202  25.354  19.131  0.00  0.00     0.021 A 
HETATM    4  N   UNK     0     -20.348  26.700  19.133  0.00  0.00    -0.361 N 
HETATM    5  C   UNK     0     -20.381  27.119  20.415  0.00  0.00     0.022 A 
HETATM    6  C   UNK     0     -20.245  26.022  21.259  0.00  0.00    -0.027 A 
HETATM    7  C   UNK     0     -20.617  28.492  20.962  0.00  0.00     0.115 C 
HETATM    8  C   UNK     0     -21.717  29.307  20.305  0.00  0.00     0.021 A 
HETATM    9  N   UNK     0     -22.887  28.883  19.804  0.00  0.00    -0.361 N 
HETATM   10  C   UNK     0     -23.508  29.938  19.236  0.00  0.00     0.022 A 
HETATM   11  C   UNK     0     -22.720  31.076  19.383  0.00  0.00    -0.027 A 
HETATM   12  C   UNK     0     -21.590  30.686  20.056  0.00  0.00    -0.031 A 
HETATM   13  C   UNK     0     -20.447  31.595  20.445  0.00  0.00     0.051 C 
HETATM   14  C   UNK     0     -24.838  29.906  18.488  0.00  0.00     0.115 C 
HETATM   15  C   UNK     0     -24.832  29.011  17.259  0.00  0.00     0.021 A 
HETATM   16  N   UNK     0     -24.568  27.692  17.206  0.00  0.00    -0.361 N 
HETATM   17  C   UNK     0     -24.596  27.290  15.933  0.00  0.00     0.022 A 
HETATM   18  C   UNK     0     -24.902  28.399  15.119  0.00  0.00    -0.027 A 
HETATM   19  C   UNK     0     -25.049  29.470  15.962  0.00  0.00    -0.031 A 
HETATM   20  C   UNK     0     -25.421  30.866  15.496  0.00  0.00     0.051 C 
HETATM   21  C   UNK     0     -24.299  25.934  15.335  0.00  0.00     0.115 C 
HETATM   22  C   UNK     0     -23.238  25.093  16.005  0.00  0.00     0.022 A 
HETATM   23  N   UNK     0     -22.066  25.490  16.517  0.00  0.00    -0.361 N 
HETATM   24  C   UNK     0     -21.501  24.439  17.145  0.00  0.00     0.021 A 
HETATM   25  C   UNK     0     -22.325  23.337  17.027  0.00  0.00    -0.031 A 
HETATM   26  C   UNK     0     -22.106  21.924  17.528  0.00  0.00     0.051 C 
HETATM   27  C   UNK     0     -23.443  23.730  16.301  0.00  0.00    -0.027 A 
HETATM   28  C   UNK     0     -20.215  24.421  17.953  0.00  0.00     0.115 C 
HETATM   29  H   UNK     0     -20.388  27.349  18.227  0.00  0.00     0.165 HD
HETATM   30  H   UNK     0     -23.301  27.848  19.893  0.00  0.00     0.165 HD
HETATM   31  H   UNK     0     -24.406  27.019  18.088  0.00  0.00     0.165 HD
HETATM   32  H   UNK     0     -21.605  26.505  16.401  0.00  0.00     0.165 HD
ENDROOT
BRANCH   6  33
HETATM   33  C   UNK     0     -20.213  25.956  22.765  0.00  0.00     0.051 C 
BRANCH  33  34
HETATM   34  C   UNK     0     -18.808  26.161  23.280  0.00  0.00     0.114 C 
BRANCH  34  35
HETATM   35  C   UNK     0     -18.436  24.945  24.060  0.00  0.00     0.139 C 
HETATM   36  O   UNK     0     -19.303  24.349  24.762  0.00  0.00    -0.650 OA
BRANCH  35  37
HETATM   37  O   UNK     0     -17.151  24.416  24.054  0.00  0.00    -0.776 OA
HETATM   38  H   UNK     0     -16.337  24.991  23.912  0.00  0.00     0.167 HD
ENDBRANCH  35  37
ENDBRANCH  34  35
ENDBRANCH  33  34
ENDBRANCH   6  33
BRANCH  27  39
HETATM   39  C   UNK     0     -24.527  22.789  15.908  0.00  0.00     0.051 C 
BRANCH  39  40
HETATM   40  C   UNK     0     -24.338  21.974  14.708  0.00  0.00     0.114 C 
BRANCH  40  41
HETATM   41  C   UNK     0     -24.094  22.560  13.409  0.00  0.00     0.139 C 
HETATM   42  O   UNK     0     -24.995  22.967  12.663  0.00  0.00    -0.650 OA
BRANCH  41  43
HETATM   43  O   UNK     0     -22.753  22.683  12.948  0.00  0.00    -0.776 OA
HETATM   44  H   UNK     0     -22.517  22.070  12.176  0.00  0.00     0.167 HD
ENDBRANCH  41  43
ENDBRANCH  40  41
ENDBRANCH  39  40
ENDBRANCH  27  39
BRANCH  11  45
HETATM   45  C   UNK     0     -22.999  32.481  18.921  0.00  0.00     0.051 C 
BRANCH  45  46
HETATM   46  C   UNK     0     -22.767  32.699  17.470  0.00  0.00     0.114 C 
BRANCH  46  47
HETATM   47  C   UNK     0     -22.080  34.015  17.326  0.00  0.00     0.139 C 
HETATM   48  O   UNK     0     -22.371  34.925  18.115  0.00  0.00    -0.650 OA
BRANCH  47  49
HETATM   49  O   UNK     0     -21.147  34.216  16.341  0.00  0.00    -0.776 OA
HETATM   50  H   UNK     0     -21.389  34.644  15.440  0.00  0.00     0.167 HD
ENDBRANCH  47  49
ENDBRANCH  46  47
ENDBRANCH  45  46
ENDBRANCH  11  45
BRANCH  18  51
HETATM   51  C   UNK     0     -25.067  28.432  13.622  0.00  0.00     0.051 C 
BRANCH  51  52
HETATM   52  C   UNK     0     -26.475  27.930  13.337  0.00  0.00     0.114 C 
BRANCH  52  53
HETATM   53  C   UNK     0     -26.492  26.917  12.264  0.00  0.00     0.139 C 
HETATM   54  O   UNK     0     -26.554  27.271  11.076  0.00  0.00    -0.650 OA
BRANCH  53  55
HETATM   55  O   UNK     0     -26.442  25.583  12.588  0.00  0.00    -0.776 OA
HETATM   56  H   UNK     0     -25.676  25.113  13.009  0.00  0.00     0.167 HD
ENDBRANCH  53  55
ENDBRANCH  52  53
ENDBRANCH  51  52
ENDBRANCH  18  51
TORSDOF 16
ENDMDL
MODEL 9
REMARK VINA RESULT:      -7.8     19.442     22.485
REMARK  16 active torsions:
REMARK  status: ('A' for Active; 'I' for Inactive)
REMARK    1  A    between atoms: C_6  and  C_7 
REMARK    2  A    between atoms: C_7  and  C_8 
REMARK    3  A    between atoms: C_8  and  C_9 
REMARK    4  A    between atoms: C_9  and  O_11 
REMARK    5  A    between atoms: C_16  and  C_17 
REMARK    6  A    between atoms: C_17  and  C_18 
REMARK    7  A    between atoms: C_18  and  C_19 
REMARK    8  A    between atoms: C_19  and  O_21 
REMARK    9  A    between atoms: C_28  and  C_29 
REMARK   10  A    between atoms: C_29  and  C_30 
REMARK   11  A    between atoms: C_30  and  C_31 
REMARK   12  A    between atoms: C_31  and  O_33 
REMARK   13  A    between atoms: C_42  and  C_43 
REMARK   14  A    between atoms: C_43  and  C_44 
REMARK   15  A    between atoms: C_44  and  C_45 
REMARK   16  A    between atoms: C_45  and  O_47 
ROOT
HETATM    1  C   UNK     0     -18.821  20.804  23.691  0.00  0.00     0.051 C 
HETATM    2  C   UNK     0     -19.168  21.330  22.313  0.00  0.00    -0.031 A 
HETATM    3  C   UNK     0     -19.237  20.655  21.105  0.00  0.00     0.021 A 
HETATM    4  N   UNK     0     -19.555  21.534  20.126  0.00  0.00    -0.361 N 
HETATM    5  C   UNK     0     -19.699  22.753  20.685  0.00  0.00     0.022 A 
HETATM    6  C   UNK     0     -19.461  22.662  22.052  0.00  0.00    -0.027 A 
HETATM    7  C   UNK     0     -20.135  24.042  20.060  0.00  0.00     0.115 C 
HETATM    8  C   UNK     0     -21.299  23.968  19.088  0.00  0.00     0.021 A 
HETATM    9  N   UNK     0     -22.381  23.176  19.138  0.00  0.00    -0.361 N 
HETATM   10  C   UNK     0     -23.106  23.385  18.019  0.00  0.00     0.022 A 
HETATM   11  C   UNK     0     -22.479  24.345  17.231  0.00  0.00    -0.027 A 
HETATM   12  C   UNK     0     -21.340  24.717  17.898  0.00  0.00    -0.031 A 
HETATM   13  C   UNK     0     -20.342  25.746  17.418  0.00  0.00     0.051 C 
HETATM   14  C   UNK     0     -24.386  22.653  17.624  0.00  0.00     0.115 C 
HETATM   15  C   UNK     0     -24.209  21.153  17.453  0.00  0.00     0.021 A 
HETATM   16  N   UNK     0     -23.776  20.267  18.370  0.00  0.00    -0.361 N 
HETATM   17  C   UNK     0     -23.694  19.059  17.808  0.00  0.00     0.022 A 
HETATM   18  C   UNK     0     -24.104  19.160  16.464  0.00  0.00    -0.027 A 
HETATM   19  C   UNK     0     -24.425  20.476  16.255  0.00  0.00    -0.031 A 
HETATM   20  C   UNK     0     -24.952  21.017  14.938  0.00  0.00     0.051 C 
HETATM   21  C   UNK     0     -23.198  17.752  18.383  0.00  0.00     0.115 C 
HETATM   22  C   UNK     0     -22.069  17.813  19.385  0.00  0.00     0.022 A 
HETATM   23  N   UNK     0     -20.982  18.595  19.362  0.00  0.00    -0.361 N 
HETATM   24  C   UNK     0     -20.315  18.427  20.522  0.00  0.00     0.021 A 
HETATM   25  C   UNK     0     -20.984  17.507  21.306  0.00  0.00    -0.031 A 
HETATM   26  C   UNK     0     -20.608  16.963  22.669  0.00  0.00     0.051 C 
HETATM   27  C   UNK     0     -22.110  17.100  20.599  0.00  0.00    -0.027 A 
HETATM   28  C   UNK     0     -19.075  19.165  20.997  0.00  0.00     0.115 C 
HETATM   29  H   UNK     0     -19.636  21.295  19.040  0.00  0.00     0.165 HD
HETATM   30  H   UNK     0     -22.662  22.504  19.986  0.00  0.00     0.165 HD
HETATM   31  H   UNK     0     -23.568  20.489  19.449  0.00  0.00     0.165 HD
HETATM   32  H   UNK     0     -20.651  19.241  18.508  0.00  0.00     0.165 HD
ENDROOT
BRANCH   6  33
HETATM   33  C   UNK     0     -19.488  23.732  23.115  0.00  0.00     0.051 C 
BRANCH  33  34
HETATM   34  C   UNK     0     -18.171  24.469  23.166  0.00  0.00     0.114 C 
BRANCH  34  35
HETATM   35  C   UNK     0     -17.661  24.374  24.564  0.00  0.00     0.139 C 
HETATM   36  O   UNK     0     -18.006  25.233  25.427  0.00  0.00    -0.650 OA
BRANCH  35  37
HETATM   37  O   UNK     0     -16.805  23.363  24.983  0.00  0.00    -0.776 OA
HETATM   38  H   UNK     0     -16.645  22.536  24.431  0.00  0.00     0.167 HD
ENDBRANCH  35  37
ENDBRANCH  34  35
ENDBRANCH  33  34
ENDBRANCH   6  33
BRANCH  27  39
HETATM   39  C   UNK     0     -23.045  16.054  21.097  0.00  0.00     0.051 C 
BRANCH  39  40
HETATM   40  C   UNK     0     -22.744  14.655  20.797  0.00  0.00     0.114 C 
BRANCH  40  41
HETATM   41  C   UNK     0     -23.240  13.998  19.608  0.00  0.00     0.139 C 
HETATM   42  O   UNK     0     -22.773  14.188  18.477  0.00  0.00    -0.650 OA
BRANCH  41  43
HETATM   43  O   UNK     0     -24.323  13.081  19.726  0.00  0.00    -0.776 OA
HETATM   44  H   UNK     0     -25.237  13.491  19.581  0.00  0.00     0.167 HD
ENDBRANCH  41  43
ENDBRANCH  40  41
ENDBRANCH  39  40
ENDBRANCH  27  39
BRANCH  11  45
HETATM   45  C   UNK     0     -22.916  24.906  15.904  0.00  0.00     0.051 C 
BRANCH  45  46
HETATM   46  C   UNK     0     -22.068  24.485  14.759  0.00  0.00     0.114 C 
BRANCH  46  47
HETATM   47  C   UNK     0     -22.966  23.842  13.758  0.00  0.00     0.139 C 
HETATM   48  O   UNK     0     -24.118  24.279  13.629  0.00  0.00    -0.650 OA
BRANCH  47  49
HETATM   49  O   UNK     0     -22.528  22.789  12.996  0.00  0.00    -0.776 OA
HETATM   50  H   UNK     0     -21.894  22.919  12.198  0.00  0.00     0.167 HD
ENDBRANCH  47  49
ENDBRANCH  46  47
ENDBRANCH  45  46
ENDBRANCH  11  45
BRANCH  18  51
HETATM   51  C   UNK     0     -24.204  18.059  15.441  0.00  0.00     0.051 C 
BRANCH  51  52
HETATM   52  C   UNK     0     -25.621  17.515  15.537  0.00  0.00     0.114 C 
BRANCH  52  53
HETATM   53  C   UNK     0     -25.800  16.298  14.722  0.00  0.00     0.139 C 
HETATM   54  O   UNK     0     -24.955  15.389  14.769  0.00  0.00    -0.650 OA
BRANCH  53  55
HETATM   55  O   UNK     0     -26.902  16.178  13.911  0.00  0.00    -0.776 OA
HETATM   56  H   UNK     0     -27.497  15.386  13.848  0.00  0.00     0.167 HD
ENDBRANCH  53  55
ENDBRANCH  52  53
ENDBRANCH  51  52
ENDBRANCH  18  51
TORSDOF 16
ENDMDL
MODEL 10
REMARK VINA RESULT:      -7.8     22.040     26.666
REMARK  16 active torsions:
REMARK  status: ('A' for Active; 'I' for Inactive)
REMARK    1  A    between atoms: C_6  and  C_7 
REMARK    2  A    between atoms: C_7  and  C_8 
REMARK    3  A    between atoms: C_8  and  C_9 
REMARK    4  A    between atoms: C_9  and  O_11 
REMARK    5  A    between atoms: C_16  and  C_17 
REMARK    6  A    between atoms: C_17  and  C_18 
REMARK    7  A    between atoms: C_18  and  C_19 
REMARK    8  A    between atoms: C_19  and  O_21 
REMARK    9  A    between atoms: C_28  and  C_29 
REMARK   10  A    between atoms: C_29  and  C_30 
REMARK   11  A    between atoms: C_30  and  C_31 
REMARK   12  A    between atoms: C_31  and  O_33 
REMARK   13  A    between atoms: C_42  and  C_43 
REMARK   14  A    between atoms: C_43  and  C_44 
REMARK   15  A    between atoms: C_44  and  C_45 
REMARK   16  A    between atoms: C_45  and  O_47 
ROOT
HETATM    1  C   UNK     0     -24.353  33.170  17.320  0.00  0.00     0.051 C 
HETATM    2  C   UNK     0     -23.719  32.123  18.213  0.00  0.00    -0.031 A 
HETATM    3  C   UNK     0     -24.150  30.838  18.505  0.00  0.00     0.021 A 
HETATM    4  N   UNK     0     -23.285  30.271  19.379  0.00  0.00    -0.361 N 
HETATM    5  C   UNK     0     -22.308  31.162  19.643  0.00  0.00     0.022 A 
HETATM    6  C   UNK     0     -22.550  32.333  18.933  0.00  0.00    -0.027 A 
HETATM    7  C   UNK     0     -21.068  31.000  20.466  0.00  0.00     0.115 C 
HETATM    8  C   UNK     0     -20.309  29.694  20.306  0.00  0.00     0.021 A 
HETATM    9  N   UNK     0     -20.138  28.958  19.197  0.00  0.00    -0.361 N 
HETATM   10  C   UNK     0     -19.476  27.832  19.540  0.00  0.00     0.022 A 
HETATM   11  C   UNK     0     -19.206  27.849  20.905  0.00  0.00    -0.027 A 
HETATM   12  C   UNK     0     -19.728  29.019  21.394  0.00  0.00    -0.031 A 
HETATM   13  C   UNK     0     -19.666  29.469  22.836  0.00  0.00     0.051 C 
HETATM   14  C   UNK     0     -19.121  26.676  18.609  0.00  0.00     0.115 C 
HETATM   15  C   UNK     0     -20.328  25.998  17.981  0.00  0.00     0.021 A 
HETATM   16  N   UNK     0     -21.276  26.561  17.209  0.00  0.00    -0.361 N 
HETATM   17  C   UNK     0     -22.203  25.645  16.916  0.00  0.00     0.022 A 
HETATM   18  C   UNK     0     -21.835  24.425  17.517  0.00  0.00    -0.027 A 
HETATM   19  C   UNK     0     -20.658  24.659  18.180  0.00  0.00    -0.031 A 
HETATM   20  C   UNK     0     -19.891  23.593  18.940  0.00  0.00     0.051 C 
HETATM   21  C   UNK     0     -23.497  25.784  16.146  0.00  0.00     0.115 C 
HETATM   22  C   UNK     0     -24.240  27.094  16.262  0.00  0.00     0.022 A 
HETATM   23  N   UNK     0     -24.423  27.852  17.352  0.00  0.00    -0.361 N 
HETATM   24  C   UNK     0     -25.015  29.002  16.973  0.00  0.00     0.021 A 
HETATM   25  C   UNK     0     -25.227  28.981  15.608  0.00  0.00    -0.031 A 
HETATM   26  C   UNK     0     -25.893  30.021  14.731  0.00  0.00     0.051 C 
HETATM   27  C   UNK     0     -24.740  27.770  15.130  0.00  0.00    -0.027 A 
HETATM   28  C   UNK     0     -25.340  30.208  17.837  0.00  0.00     0.115 C 
HETATM   29  H   UNK     0     -23.392  29.258  19.833  0.00  0.00     0.165 HD
HETATM   30  H   UNK     0     -20.439  29.252  18.162  0.00  0.00     0.165 HD
HETATM   31  H   UNK     0     -21.269  27.614  16.823  0.00  0.00     0.165 HD
HETATM   32  H   UNK     0     -24.175  27.562  18.406  0.00  0.00     0.165 HD
ENDROOT
BRANCH   6  33
HETATM   33  C   UNK     0     -21.766  33.620  18.888  0.00  0.00     0.051 C 
BRANCH  33  34
HETATM   34  C   UNK     0     -20.990  33.729  17.597  0.00  0.00     0.114 C 
BRANCH  34  35
HETATM   35  C   UNK     0     -21.302  35.059  16.999  0.00  0.00     0.139 C 
HETATM   36  O   UNK     0     -22.254  35.756  17.456  0.00  0.00    -0.650 OA
BRANCH  35  37
HETATM   37  O   UNK     0     -20.581  35.591  15.937  0.00  0.00    -0.776 OA
HETATM   38  H   UNK     0     -20.930  35.575  14.992  0.00  0.00     0.167 HD
ENDBRANCH  35  37
ENDBRANCH  34  35
ENDBRANCH  33  34
ENDBRANCH   6  33
BRANCH  27  39
HETATM   39  C   UNK     0     -24.857  27.354  13.707  0.00  0.00     0.051 C 
BRANCH  39  40
HETATM   40  C   UNK     0     -25.887  26.378  13.351  0.00  0.00     0.114 C 
BRANCH  40  41
HETATM   41  C   UNK     0     -25.578  24.987  13.104  0.00  0.00     0.139 C 
HETATM   42  O   UNK     0     -24.424  24.536  13.086  0.00  0.00    -0.650 OA
BRANCH  41  43
HETATM   43  O   UNK     0     -26.644  24.074  12.864  0.00  0.00    -0.776 OA
HETATM   44  H   UNK     0     -26.426  23.340  12.201  0.00  0.00     0.167 HD
ENDBRANCH  41  43
ENDBRANCH  40  41
ENDBRANCH  39  40
ENDBRANCH  27  39
BRANCH  11  45
HETATM   45  C   UNK     0     -18.486  26.820  21.735  0.00  0.00     0.051 C 
BRANCH  45  46
HETATM   46  C   UNK     0     -19.350  25.705  22.202  0.00  0.00     0.114 C 
BRANCH  46  47
HETATM   47  C   UNK     0     -19.390  25.770  23.691  0.00  0.00     0.139 C 
HETATM   48  O   UNK     0     -20.285  25.156  24.287  0.00  0.00    -0.650 OA
BRANCH  47  49
HETATM   49  O   UNK     0     -18.456  26.496  24.388  0.00  0.00    -0.776 OA
HETATM   50  H   UNK     0     -18.326  27.503  24.238  0.00  0.00     0.167 HD
ENDBRANCH  47  49
ENDBRANCH  46  47
ENDBRANCH  45  46
ENDBRANCH  11  45
BRANCH  18  51
HETATM   51  C   UNK     0     -22.554  23.103  17.446  0.00  0.00     0.051 C 
BRANCH  51  52
HETATM   52  C   UNK     0     -21.953  22.354  16.266  0.00  0.00     0.114 C 
BRANCH  52  53
HETATM   53  C   UNK     0     -22.900  22.252  15.139  0.00  0.00     0.139 C 
HETATM   54  O   UNK     0     -24.120  22.177  15.358  0.00  0.00    -0.650 OA
BRANCH  53  55
HETATM   55  O   UNK     0     -22.425  22.237  13.850  0.00  0.00    -0.776 OA
HETATM   56  H   UNK     0     -21.544  21.886  13.557  0.00  0.00     0.167 HD
ENDBRANCH  53  55
ENDBRANCH  52  53
ENDBRANCH  51  52
ENDBRANCH  18  51
TORSDOF 16
ENDMDL
MODEL 11
REMARK VINA RESULT:      -7.8     21.677     24.888
REMARK  16 active torsions:
REMARK  status: ('A' for Active; 'I' for Inactive)
REMARK    1  A    between atoms: C_6  and  C_7 
REMARK    2  A    between atoms: C_7  and  C_8 
REMARK    3  A    between atoms: C_8  and  C_9 
REMARK    4  A    between atoms: C_9  and  O_11 
REMARK    5  A    between atoms: C_16  and  C_17 
REMARK    6  A    between atoms: C_17  and  C_18 
REMARK    7  A    between atoms: C_18  and  C_19 
REMARK    8  A    between atoms: C_19  and  O_21 
REMARK    9  A    between atoms: C_28  and  C_29 
REMARK   10  A    between atoms: C_29  and  C_30 
REMARK   11  A    between atoms: C_30  and  C_31 
REMARK   12  A    between atoms: C_31  and  O_33 
REMARK   13  A    between atoms: C_42  and  C_43 
REMARK   14  A    between atoms: C_43  and  C_44 
REMARK   15  A    between atoms: C_44  and  C_45 
REMARK   16  A    between atoms: C_45  and  O_47 
ROOT
HETATM    1  C   UNK     0     -18.447  23.601  23.413  0.00  0.00     0.051 C 
HETATM    2  C   UNK     0     -19.609  23.374  22.466  0.00  0.00    -0.031 A 
HETATM    3  C   UNK     0     -20.768  24.116  22.303  0.00  0.00     0.021 A 
HETATM    4  N   UNK     0     -21.542  23.524  21.362  0.00  0.00    -0.361 N 
HETATM    5  C   UNK     0     -20.897  22.426  20.917  0.00  0.00     0.022 A 
HETATM    6  C   UNK     0     -19.686  22.301  21.589  0.00  0.00    -0.027 A 
HETATM    7  C   UNK     0     -21.275  21.479  19.820  0.00  0.00     0.115 C 
HETATM    8  C   UNK     0     -21.824  22.097  18.547  0.00  0.00     0.021 A 
HETATM    9  N   UNK     0     -21.475  23.252  17.959  0.00  0.00    -0.361 N 
HETATM   10  C   UNK     0     -22.289  23.446  16.900  0.00  0.00     0.022 A 
HETATM   11  C   UNK     0     -23.181  22.382  16.797  0.00  0.00    -0.027 A 
HETATM   12  C   UNK     0     -22.893  21.528  17.831  0.00  0.00    -0.031 A 
HETATM   13  C   UNK     0     -23.608  20.226  18.114  0.00  0.00     0.051 C 
HETATM   14  C   UNK     0     -22.295  24.662  15.978  0.00  0.00     0.115 C 
HETATM   15  C   UNK     0     -22.598  25.972  16.689  0.00  0.00     0.021 A 
HETATM   16  N   UNK     0     -21.922  26.528  17.711  0.00  0.00    -0.361 N 
HETATM   17  C   UNK     0     -22.548  27.642  18.097  0.00  0.00     0.022 A 
HETATM   18  C   UNK     0     -23.682  27.825  17.281  0.00  0.00    -0.027 A 
HETATM   19  C   UNK     0     -23.702  26.773  16.403  0.00  0.00    -0.031 A 
HETATM   20  C   UNK     0     -24.747  26.601  15.315  0.00  0.00     0.051 C 
HETATM   21  C   UNK     0     -22.238  28.585  19.237  0.00  0.00     0.115 C 
HETATM   22  C   UNK     0     -21.650  27.990  20.495  0.00  0.00     0.022 A 
HETATM   23  N   UNK     0     -21.975  26.840  21.100  0.00  0.00    -0.361 N 
HETATM   24  C   UNK     0     -21.101  26.629  22.105  0.00  0.00     0.021 A 
HETATM   25  C   UNK     0     -20.198  27.674  22.155  0.00  0.00    -0.031 A 
HETATM   26  C   UNK     0     -19.062  27.905  23.129  0.00  0.00     0.051 C 
HETATM   27  C   UNK     0     -20.529  28.558  21.134  0.00  0.00    -0.027 A 
HETATM   28  C   UNK     0     -21.007  25.417  23.015  0.00  0.00     0.115 C 
HETATM   29  H   UNK     0     -22.556  23.864  21.048  0.00  0.00     0.165 HD
HETATM   30  H   UNK     0     -20.622  23.908  18.260  0.00  0.00     0.165 HD
HETATM   31  H   UNK     0     -20.955  26.153  18.138  0.00  0.00     0.165 HD
HETATM   32  H   UNK     0     -22.852  26.188  20.850  0.00  0.00     0.165 HD
ENDROOT
BRANCH   6  33
HETATM   33  C   UNK     0     -18.611  21.251  21.463  0.00  0.00     0.051 C 
BRANCH  33  34
HETATM   34  C   UNK     0     -18.911  20.068  22.354  0.00  0.00     0.114 C 
BRANCH  34  35
HETATM   35  C   UNK     0     -18.050  18.938  21.901  0.00  0.00     0.139 C 
HETATM   36  O   UNK     0     -18.335  18.305  20.843  0.00  0.00    -0.650 OA
BRANCH  35  37
HETATM   37  O   UNK     0     -16.919  18.532  22.598  0.00  0.00    -0.776 OA
HETATM   38  H   UNK     0     -16.025  18.979  22.472  0.00  0.00     0.167 HD
ENDBRANCH  35  37
ENDBRANCH  34  35
ENDBRANCH  33  34
ENDBRANCH   6  33
BRANCH  27  39
HETATM   39  C   UNK     0     -19.819  29.847  20.917  0.00  0.00     0.051 C 
BRANCH  39  40
HETATM   40  C   UNK     0     -20.430  31.072  21.434  0.00  0.00     0.114 C 
BRANCH  40  41
HETATM   41  C   UNK     0     -21.148  31.994  20.583  0.00  0.00     0.139 C 
HETATM   42  O   UNK     0     -22.383  32.077  20.554  0.00  0.00    -0.650 OA
BRANCH  41  43
HETATM   43  O   UNK     0     -20.411  32.860  19.726  0.00  0.00    -0.776 OA
HETATM   44  H   UNK     0     -20.380  33.825  20.032  0.00  0.00     0.167 HD
ENDBRANCH  41  43
ENDBRANCH  40  41
ENDBRANCH  39  40
ENDBRANCH  27  39
BRANCH  11  45
HETATM   45  C   UNK     0     -24.263  22.156  15.776  0.00  0.00     0.051 C 
BRANCH  45  46
HETATM   46  C   UNK     0     -23.828  21.365  14.596  0.00  0.00     0.114 C 
BRANCH  46  47
HETATM   47  C   UNK     0     -23.769  22.300  13.435  0.00  0.00     0.139 C 
HETATM   48  O   UNK     0     -24.832  22.675  12.922  0.00  0.00    -0.650 OA
BRANCH  47  49
HETATM   49  O   UNK     0     -22.564  22.735  12.944  0.00  0.00    -0.776 OA
HETATM   50  H   UNK     0     -21.754  22.110  12.853  0.00  0.00     0.167 HD
ENDBRANCH  47  49
ENDBRANCH  46  47
ENDBRANCH  45  46
ENDBRANCH  11  45
BRANCH  18  51
HETATM   51  C   UNK     0     -24.681  28.952  17.323  0.00  0.00     0.051 C 
BRANCH  51  52
HETATM   52  C   UNK     0     -24.081  30.084  16.502  0.00  0.00     0.114 C 
BRANCH  52  53
HETATM   53  C   UNK     0     -24.446  31.408  17.041  0.00  0.00     0.139 C 
HETATM   54  O   UNK     0     -25.532  31.925  16.737  0.00  0.00    -0.650 OA
BRANCH  53  55
HETATM   55  O   UNK     0     -23.575  32.065  17.877  0.00  0.00    -0.776 OA
HETATM   56  H   UNK     0     -23.113  31.673  18.663  0.00  0.00     0.167 HD
ENDBRANCH  53  55
ENDBRANCH  52  53
ENDBRANCH  51  52
ENDBRANCH  18  51
TORSDOF 16
ENDMDL
MODEL 12
REMARK VINA RESULT:      -7.7     17.923     20.588
REMARK  16 active torsions:
REMARK  status: ('A' for Active; 'I' for Inactive)
REMARK    1  A    between atoms: C_6  and  C_7 
REMARK    2  A    between atoms: C_7  and  C_8 
REMARK    3  A    between atoms: C_8  and  C_9 
REMARK    4  A    between atoms: C_9  and  O_11 
REMARK    5  A    between atoms: C_16  and  C_17 
REMARK    6  A    between atoms: C_17  and  C_18 
REMARK    7  A    between atoms: C_18  and  C_19 
REMARK    8  A    between atoms: C_19  and  O_21 
REMARK    9  A    between atoms: C_28  and  C_29 
REMARK   10  A    between atoms: C_29  and  C_30 
REMARK   11  A    between atoms: C_30  and  C_31 
REMARK   12  A    between atoms: C_31  and  O_33 
REMARK   13  A    between atoms: C_42  and  C_43 
REMARK   14  A    between atoms: C_43  and  C_44 
REMARK   15  A    between atoms: C_44  and  C_45 
REMARK   16  A    between atoms: C_45  and  O_47 
ROOT
HETATM    1  C   UNK     0     -27.575  16.086  16.264  0.00  0.00     0.051 C 
HETATM    2  C   UNK     0     -26.281  16.154  17.049  0.00  0.00    -0.031 A 
HETATM    3  C   UNK     0     -25.051  16.673  16.675  0.00  0.00     0.021 A 
HETATM    4  N   UNK     0     -24.169  16.490  17.687  0.00  0.00    -0.361 N 
HETATM    5  C   UNK     0     -24.812  15.873  18.700  0.00  0.00     0.022 A 
HETATM    6  C   UNK     0     -26.134  15.646  18.333  0.00  0.00    -0.027 A 
HETATM    7  C   UNK     0     -24.319  15.529  20.071  0.00  0.00     0.115 C 
HETATM    8  C   UNK     0     -23.488  16.584  20.781  0.00  0.00     0.021 A 
HETATM    9  N   UNK     0     -23.618  17.919  20.739  0.00  0.00    -0.361 N 
HETATM   10  C   UNK     0     -22.606  18.461  21.448  0.00  0.00     0.022 A 
HETATM   11  C   UNK     0     -21.808  17.447  21.969  0.00  0.00    -0.027 A 
HETATM   12  C   UNK     0     -22.358  16.262  21.553  0.00  0.00    -0.031 A 
HETATM   13  C   UNK     0     -21.825  14.886  21.885  0.00  0.00     0.051 C 
HETATM   14  C   UNK     0     -22.322  19.951  21.619  0.00  0.00     0.115 C 
HETATM   15  C   UNK     0     -22.044  20.678  20.313  0.00  0.00     0.021 A 
HETATM   16  N   UNK     0     -22.849  20.774  19.239  0.00  0.00    -0.361 N 
HETATM   17  C   UNK     0     -22.212  21.436  18.270  0.00  0.00     0.022 A 
HETATM   18  C   UNK     0     -20.933  21.796  18.739  0.00  0.00    -0.027 A 
HETATM   19  C   UNK     0     -20.841  21.317  20.020  0.00  0.00    -0.031 A 
HETATM   20  C   UNK     0     -19.629  21.519  20.912  0.00  0.00     0.051 C 
HETATM   21  C   UNK     0     -22.647  21.745  16.856  0.00  0.00     0.115 C 
HETATM   22  C   UNK     0     -23.511  20.724  16.153  0.00  0.00     0.022 A 
HETATM   23  N   UNK     0     -23.407  19.389  16.180  0.00  0.00    -0.361 N 
HETATM   24  C   UNK     0     -24.469  18.869  15.532  0.00  0.00     0.021 A 
HETATM   25  C   UNK     0     -25.270  19.893  15.068  0.00  0.00    -0.031 A 
HETATM   26  C   UNK     0     -26.545  19.813  14.254  0.00  0.00     0.051 C 
HETATM   27  C   UNK     0     -24.678  21.091  15.452  0.00  0.00    -0.027 A 
HETATM   28  C   UNK     0     -24.837  17.403  15.379  0.00  0.00     0.115 C 
HETATM   29  H   UNK     0     -23.088  16.762  17.662  0.00  0.00     0.165 HD
HETATM   30  H   UNK     0     -24.452  18.480  20.251  0.00  0.00     0.165 HD
HETATM   31  H   UNK     0     -23.908  20.409  19.178  0.00  0.00     0.165 HD
HETATM   32  H   UNK     0     -22.559  18.802  16.619  0.00  0.00     0.165 HD
ENDROOT
BRANCH   6  33
HETATM   33  C   UNK     0     -27.254  14.988  19.100  0.00  0.00     0.051 C 
BRANCH  33  34
HETATM   34  C   UNK     0     -27.285  13.502  18.832  0.00  0.00     0.114 C 
BRANCH  34  35
HETATM   35  C   UNK     0     -26.728  12.819  20.035  0.00  0.00     0.139 C 
HETATM   36  O   UNK     0     -26.984  13.260  21.193  0.00  0.00    -0.650 OA
BRANCH  35  37
HETATM   37  O   UNK     0     -25.922  11.691  19.949  0.00  0.00    -0.776 OA
HETATM   38  H   UNK     0     -25.839  11.035  20.709  0.00  0.00     0.167 HD
ENDBRANCH  35  37
ENDBRANCH  34  35
ENDBRANCH  33  34
ENDBRANCH   6  33
BRANCH  27  39
HETATM   39  C   UNK     0     -25.219  22.423  15.069  0.00  0.00     0.051 C 
BRANCH  39  40
HETATM   40  C   UNK     0     -24.698  23.063  13.861  0.00  0.00     0.114 C 
BRANCH  40  41
HETATM   41  C   UNK     0     -23.327  23.509  13.756  0.00  0.00     0.139 C 
HETATM   42  O   UNK     0     -22.884  24.503  14.347  0.00  0.00    -0.650 OA
BRANCH  41  43
HETATM   43  O   UNK     0     -22.424  22.778  12.933  0.00  0.00    -0.776 OA
HETATM   44  H   UNK     0     -22.836  22.406  12.086  0.00  0.00     0.167 HD
ENDBRANCH  41  43
ENDBRANCH  40  41
ENDBRANCH  39  40
ENDBRANCH  27  39
BRANCH  11  45
HETATM   45  C   UNK     0     -20.577  17.565  22.827  0.00  0.00     0.051 C 
BRANCH  45  46
HETATM   46  C   UNK     0     -19.318  17.746  22.060  0.00  0.00     0.114 C 
BRANCH  46  47
HETATM   47  C   UNK     0     -18.410  18.587  22.892  0.00  0.00     0.139 C 
HETATM   48  O   UNK     0     -18.912  19.350  23.729  0.00  0.00    -0.650 OA
BRANCH  47  49
HETATM   49  O   UNK     0     -17.049  18.520  22.734  0.00  0.00    -0.776 OA
HETATM   50  H   UNK     0     -16.600  18.637  21.818  0.00  0.00     0.167 HD
ENDBRANCH  47  49
ENDBRANCH  46  47
ENDBRANCH  45  46
ENDBRANCH  11  45
BRANCH  18  51
HETATM   51  C   UNK     0     -19.866  22.574  18.014  0.00  0.00     0.051 C 
BRANCH  51  52
HETATM   52  C   UNK     0     -20.304  24.030  18.045  0.00  0.00     0.114 C 
BRANCH  52  53
HETATM   53  C   UNK     0     -20.250  24.649  16.707  0.00  0.00     0.139 C 
HETATM   54  O   UNK     0     -19.491  24.189  15.839  0.00  0.00    -0.650 OA
BRANCH  53  55
HETATM   55  O   UNK     0     -21.041  25.738  16.429  0.00  0.00    -0.776 OA
HETATM   56  H   UNK     0     -22.009  25.715  16.208  0.00  0.00     0.167 HD
ENDBRANCH  53  55
ENDBRANCH  52  53
ENDBRANCH  51  52
ENDBRANCH  18  51
TORSDOF 16
ENDMDL
MODEL 13
REMARK VINA RESULT:      -7.7     21.329     24.793
REMARK  16 active torsions:
REMARK  status: ('A' for Active; 'I' for Inactive)
REMARK    1  A    between atoms: C_6  and  C_7 
REMARK    2  A    between atoms: C_7  and  C_8 
REMARK    3  A    between atoms: C_8  and  C_9 
REMARK    4  A    between atoms: C_9  and  O_11 
REMARK    5  A    between atoms: C_16  and  C_17 
REMARK    6  A    between atoms: C_17  and  C_18 
REMARK    7  A    between atoms: C_18  and  C_19 
REMARK    8  A    between atoms: C_19  and  O_21 
REMARK    9  A    between atoms: C_28  and  C_29 
REMARK   10  A    between atoms: C_29  and  C_30 
REMARK   11  A    between atoms: C_30  and  C_31 
REMARK   12  A    between atoms: C_31  and  O_33 
REMARK   13  A    between atoms: C_42  and  C_43 
REMARK   14  A    between atoms: C_43  and  C_44 
REMARK   15  A    between atoms: C_44  and  C_45 
REMARK   16  A    between atoms: C_45  and  O_47 
ROOT
HETATM    1  C   UNK     0     -20.289  21.473  18.874  0.00  0.00     0.051 C 
HETATM    2  C   UNK     0     -20.204  22.976  19.042  0.00  0.00    -0.031 A 
HETATM    3  C   UNK     0     -20.112  23.966  18.076  0.00  0.00     0.021 A 
HETATM    4  N   UNK     0     -20.028  25.172  18.687  0.00  0.00    -0.361 N 
HETATM    5  C   UNK     0     -20.072  24.973  20.020  0.00  0.00     0.022 A 
HETATM    6  C   UNK     0     -20.180  23.610  20.278  0.00  0.00    -0.027 A 
HETATM    7  C   UNK     0     -20.108  25.975  21.132  0.00  0.00     0.115 C 
HETATM    8  C   UNK     0     -21.008  27.181  20.933  0.00  0.00     0.021 A 
HETATM    9  N   UNK     0     -22.198  27.244  20.315  0.00  0.00    -0.361 N 
HETATM   10  C   UNK     0     -22.593  28.535  20.295  0.00  0.00     0.022 A 
HETATM   11  C   UNK     0     -21.635  29.324  20.925  0.00  0.00    -0.027 A 
HETATM   12  C   UNK     0     -20.634  28.478  21.329  0.00  0.00    -0.031 A 
HETATM   13  C   UNK     0     -19.381  28.895  22.066  0.00  0.00     0.051 C 
HETATM   14  C   UNK     0     -23.857  29.081  19.637  0.00  0.00     0.115 C 
HETATM   15  C   UNK     0     -23.922  28.843  18.137  0.00  0.00     0.021 A 
HETATM   16  N   UNK     0     -23.883  27.663  17.490  0.00  0.00    -0.361 N 
HETATM   17  C   UNK     0     -23.895  27.884  16.174  0.00  0.00     0.022 A 
HETATM   18  C   UNK     0     -23.955  29.275  15.952  0.00  0.00    -0.027 A 
HETATM   19  C   UNK     0     -23.973  29.864  17.190  0.00  0.00    -0.031 A 
HETATM   20  C   UNK     0     -24.072  31.362  17.410  0.00  0.00     0.051 C 
HETATM   21  C   UNK     0     -23.794  26.908  15.024  0.00  0.00     0.115 C 
HETATM   22  C   UNK     0     -22.937  25.681  15.224  0.00  0.00     0.022 A 
HETATM   23  N   UNK     0     -21.750  25.588  15.838  0.00  0.00    -0.361 N 
HETATM   24  C   UNK     0     -21.414  24.285  15.915  0.00  0.00     0.021 A 
HETATM   25  C   UNK     0     -22.403  23.520  15.328  0.00  0.00    -0.031 A 
HETATM   26  C   UNK     0     -22.460  22.019  15.135  0.00  0.00     0.051 C 
HETATM   27  C   UNK     0     -23.388  24.391  14.877  0.00  0.00    -0.027 A 
HETATM   28  C   UNK     0     -20.205  23.676  16.605  0.00  0.00     0.115 C 
HETATM   29  H   UNK     0     -19.897  26.152  18.172  0.00  0.00     0.165 HD
HETATM   30  H   UNK     0     -22.787  26.372  19.937  0.00  0.00     0.165 HD
HETATM   31  H   UNK     0     -23.895  26.651  17.972  0.00  0.00     0.165 HD
HETATM   32  H   UNK     0     -21.117  26.447  16.184  0.00  0.00     0.165 HD
ENDROOT
BRANCH   6  33
HETATM   33  C   UNK     0     -20.258  22.874  21.591  0.00  0.00     0.051 C 
BRANCH  33  34
HETATM   34  C   UNK     0     -18.875  22.583  22.125  0.00  0.00     0.114 C 
BRANCH  34  35
HETATM   35  C   UNK     0     -18.771  21.108  22.314  0.00  0.00     0.139 C 
HETATM   36  O   UNK     0     -19.794  20.375  22.182  0.00  0.00    -0.650 OA
BRANCH  35  37
HETATM   37  O   UNK     0     -17.575  20.477  22.635  0.00  0.00    -0.776 OA
HETATM   38  H   UNK     0     -17.477  19.904  23.458  0.00  0.00     0.167 HD
ENDBRANCH  35  37
ENDBRANCH  34  35
ENDBRANCH  33  34
ENDBRANCH   6  33
BRANCH  27  39
HETATM   39  C   UNK     0     -24.588  23.938  14.123  0.00  0.00     0.051 C 
BRANCH  39  40
HETATM   40  C   UNK     0     -25.854  23.807  14.844  0.00  0.00     0.114 C 
BRANCH  40  41
HETATM   41  C   UNK     0     -25.922  23.820  16.288  0.00  0.00     0.139 C 
HETATM   42  O   UNK     0     -25.934  22.793  16.981  0.00  0.00    -0.650 OA
BRANCH  41  43
HETATM   43  O   UNK     0     -25.979  25.070  16.967  0.00  0.00    -0.776 OA
HETATM   44  H   UNK     0     -26.912  25.359  17.235  0.00  0.00     0.167 HD
ENDBRANCH  41  43
ENDBRANCH  40  41
ENDBRANCH  39  40
ENDBRANCH  27  39
BRANCH  11  45
HETATM   45  C   UNK     0     -21.641  30.812  21.151  0.00  0.00     0.051 C 
BRANCH  45  46
HETATM   46  C   UNK     0     -21.142  31.602  19.996  0.00  0.00     0.114 C 
BRANCH  46  47
HETATM   47  C   UNK     0     -21.774  32.951  20.078  0.00  0.00     0.139 C 
HETATM   48  O   UNK     0     -22.784  33.090  20.782  0.00  0.00    -0.650 OA
BRANCH  47  49
HETATM   49  O   UNK     0     -21.250  34.015  19.388  0.00  0.00    -0.776 OA
HETATM   50  H   UNK     0     -21.795  34.532  18.688  0.00  0.00     0.167 HD
ENDBRANCH  47  49
ENDBRANCH  46  47
ENDBRANCH  45  46
ENDBRANCH  11  45
BRANCH  18  51
HETATM   51  C   UNK     0     -24.014  30.001  14.634  0.00  0.00     0.051 C 
BRANCH  51  52
HETATM   52  C   UNK     0     -25.408  30.603  14.540  0.00  0.00     0.114 C 
BRANCH  52  53
HETATM   53  C   UNK     0     -26.454  29.562  14.496  0.00  0.00     0.139 C 
HETATM   54  O   UNK     0     -26.397  28.660  13.645  0.00  0.00    -0.650 OA
BRANCH  53  55
HETATM   55  O   UNK     0     -27.489  29.601  15.398  0.00  0.00    -0.776 OA
HETATM   56  H   UNK     0     -27.657  28.943  16.123  0.00  0.00     0.167 HD
ENDBRANCH  53  55
ENDBRANCH  52  53
ENDBRANCH  51  52
ENDBRANCH  18  51
TORSDOF 16
ENDMDL
MODEL 14
REMARK VINA RESULT:      -7.7     18.256     21.929
REMARK  16 active torsions:
REMARK  status: ('A' for Active; 'I' for Inactive)
REMARK    1  A    between atoms: C_6  and  C_7 
REMARK    2  A    between atoms: C_7  and  C_8 
REMARK    3  A    between atoms: C_8  and  C_9 
REMARK    4  A    between atoms: C_9  and  O_11 
REMARK    5  A    between atoms: C_16  and  C_17 
REMARK    6  A    between atoms: C_17  and  C_18 
REMARK    7  A    between atoms: C_18  and  C_19 
REMARK    8  A    between atoms: C_19  and  O_21 
REMARK    9  A    between atoms: C_28  and  C_29 
REMARK   10  A    between atoms: C_29  and  C_30 
REMARK   11  A    between atoms: C_30  and  C_31 
REMARK   12  A    between atoms: C_31  and  O_33 
REMARK   13  A    between atoms: C_42  and  C_43 
REMARK   14  A    between atoms: C_43  and  C_44 
REMARK   15  A    between atoms: C_44  and  C_45 
REMARK   16  A    between atoms: C_45  and  O_47 
ROOT
HETATM    1  C   UNK     0     -24.813  23.553  14.571  0.00  0.00     0.051 C 
HETATM    2  C   UNK     0     -24.336  23.216  15.969  0.00  0.00    -0.031 A 
HETATM    3  C   UNK     0     -24.876  22.339  16.896  0.00  0.00     0.021 A 
HETATM    4  N   UNK     0     -24.135  22.381  18.029  0.00  0.00    -0.361 N 
HETATM    5  C   UNK     0     -23.129  23.260  17.841  0.00  0.00     0.022 A 
HETATM    6  C   UNK     0     -23.226  23.803  16.564  0.00  0.00    -0.027 A 
HETATM    7  C   UNK     0     -21.984  23.604  18.742  0.00  0.00     0.115 C 
HETATM    8  C   UNK     0     -21.302  22.446  19.449  0.00  0.00     0.021 A 
HETATM    9  N   UNK     0     -21.079  21.203  18.995  0.00  0.00    -0.361 N 
HETATM   10  C   UNK     0     -20.528  20.483  19.995  0.00  0.00     0.022 A 
HETATM   11  C   UNK     0     -20.384  21.287  21.122  0.00  0.00    -0.027 A 
HETATM   12  C   UNK     0     -20.870  22.525  20.785  0.00  0.00    -0.031 A 
HETATM   13  C   UNK     0     -20.911  23.727  21.701  0.00  0.00     0.051 C 
HETATM   14  C   UNK     0     -20.166  19.002  19.946  0.00  0.00     0.115 C 
HETATM   15  C   UNK     0     -21.352  18.086  19.690  0.00  0.00     0.021 A 
HETATM   16  N   UNK     0     -22.187  18.098  18.634  0.00  0.00    -0.361 N 
HETATM   17  C   UNK     0     -23.141  17.183  18.818  0.00  0.00     0.022 A 
HETATM   18  C   UNK     0     -22.912  16.536  20.049  0.00  0.00    -0.027 A 
HETATM   19  C   UNK     0     -21.788  17.110  20.585  0.00  0.00    -0.031 A 
HETATM   20  C   UNK     0     -21.167  16.680  21.901  0.00  0.00     0.051 C 
HETATM   21  C   UNK     0     -24.346  16.852  17.968  0.00  0.00     0.115 C 
HETATM   22  C   UNK     0     -25.008  17.987  17.223  0.00  0.00     0.022 A 
HETATM   23  N   UNK     0     -25.240  19.236  17.649  0.00  0.00    -0.361 N 
HETATM   24  C   UNK     0     -25.716  19.955  16.613  0.00  0.00     0.021 A 
HETATM   25  C   UNK     0     -25.803  19.148  15.495  0.00  0.00    -0.031 A 
HETATM   26  C   UNK     0     -26.315  19.488  14.111  0.00  0.00     0.051 C 
HETATM   27  C   UNK     0     -25.356  17.883  15.861  0.00  0.00    -0.027 A 
HETATM   28  C   UNK     0     -26.039  21.439  16.582  0.00  0.00     0.115 C 
HETATM   29  H   UNK     0     -24.351  21.819  18.967  0.00  0.00     0.165 HD
HETATM   30  H   UNK     0     -21.263  20.844  17.952  0.00  0.00     0.165 HD
HETATM   31  H   UNK     0     -22.073  18.733  17.717  0.00  0.00     0.165 HD
HETATM   32  H   UNK     0     -25.110  19.610  18.698  0.00  0.00     0.165 HD
ENDROOT
BRANCH   6  33
HETATM   33  C   UNK     0     -22.358  24.826  15.876  0.00  0.00     0.051 C 
BRANCH  33  34
HETATM   34  C   UNK     0     -21.346  24.152  14.980  0.00  0.00     0.114 C 
BRANCH  34  35
HETATM   35  C   UNK     0     -20.229  23.678  15.846  0.00  0.00     0.139 C 
HETATM   36  O   UNK     0     -19.404  24.505  16.332  0.00  0.00    -0.650 OA
BRANCH  35  37
HETATM   37  O   UNK     0     -20.040  22.337  16.159  0.00  0.00    -0.776 OA
HETATM   38  H   UNK     0     -19.656  21.683  15.496  0.00  0.00     0.167 HD
ENDBRANCH  35  37
ENDBRANCH  34  35
ENDBRANCH  33  34
ENDBRANCH   6  33
BRANCH  27  39
HETATM   39  C   UNK     0     -25.369  16.719  14.934  0.00  0.00     0.051 C 
BRANCH  39  40
HETATM   40  C   UNK     0     -26.560  15.872  14.901  0.00  0.00     0.114 C 
BRANCH  40  41
HETATM   41  C   UNK     0     -27.380  15.649  16.071  0.00  0.00     0.139 C 
HETATM   42  O   UNK     0     -28.432  16.263  16.295  0.00  0.00    -0.650 OA
BRANCH  41  43
HETATM   43  O   UNK     0     -26.971  14.677  17.027  0.00  0.00    -0.776 OA
HETATM   44  H   UNK     0     -26.035  14.813  17.389  0.00  0.00     0.167 HD
ENDBRANCH  41  43
ENDBRANCH  40  41
ENDBRANCH  39  40
ENDBRANCH  27  39
BRANCH  11  45
HETATM   45  C   UNK     0     -19.814  20.929  22.468  0.00  0.00     0.051 C 
BRANCH  45  46
HETATM   46  C   UNK     0     -18.343  20.722  22.468  0.00  0.00     0.114 C 
BRANCH  46  47
HETATM   47  C   UNK     0     -18.090  19.348  22.987  0.00  0.00     0.139 C 
HETATM   48  O   UNK     0     -18.914  18.848  23.766  0.00  0.00    -0.650 OA
BRANCH  47  49
HETATM   49  O   UNK     0     -16.969  18.651  22.613  0.00  0.00    -0.776 OA
HETATM   50  H   UNK     0     -16.840  17.659  22.847  0.00  0.00     0.167 HD
ENDBRANCH  47  49
ENDBRANCH  46  47
ENDBRANCH  45  46
ENDBRANCH  11  45
BRANCH  18  51
HETATM   51  C   UNK     0     -23.708  15.418  20.670  0.00  0.00     0.051 C 
BRANCH  51  52
HETATM   52  C   UNK     0     -23.123  14.124  20.123  0.00  0.00     0.114 C 
BRANCH  52  53
HETATM   53  C   UNK     0     -24.078  13.417  19.248  0.00  0.00     0.139 C 
HETATM   54  O   UNK     0     -25.290  13.681  19.308  0.00  0.00    -0.650 OA
BRANCH  53  55
HETATM   55  O   UNK     0     -23.619  12.464  18.372  0.00  0.00    -0.776 OA
HETATM   56  H   UNK     0     -24.161  11.990  17.688  0.00  0.00     0.167 HD
ENDBRANCH  53  55
ENDBRANCH  52  53
ENDBRANCH  51  52
ENDBRANCH  18  51
TORSDOF 16
ENDMDL
MODEL 15
REMARK VINA RESULT:      -7.7     18.844     22.208
REMARK  16 active torsions:
REMARK  status: ('A' for Active; 'I' for Inactive)
REMARK    1  A    between atoms: C_6  and  C_7 
REMARK    2  A    between atoms: C_7  and  C_8 
REMARK    3  A    between atoms: C_8  and  C_9 
REMARK    4  A    between atoms: C_9  and  O_11 
REMARK    5  A    between atoms: C_16  and  C_17 
REMARK    6  A    between atoms: C_17  and  C_18 
REMARK    7  A    between atoms: C_18  and  C_19 
REMARK    8  A    between atoms: C_19  and  O_21 
REMARK    9  A    between atoms: C_28  and  C_29 
REMARK   10  A    between atoms: C_29  and  C_30 
REMARK   11  A    between atoms: C_30  and  C_31 
REMARK   12  A    between atoms: C_31  and  O_33 
REMARK   13  A    between atoms: C_42  and  C_43 
REMARK   14  A    between atoms: C_43  and  C_44 
REMARK   15  A    between atoms: C_44  and  C_45 
REMARK   16  A    between atoms: C_45  and  O_47 
ROOT
HETATM    1  C   UNK     0     -26.335  20.737  13.279  0.00  0.00     0.051 C 
HETATM    2  C   UNK     0     -25.219  20.586  14.292  0.00  0.00    -0.031 A 
HETATM    3  C   UNK     0     -24.010  21.258  14.375  0.00  0.00     0.021 A 
HETATM    4  N   UNK     0     -23.308  20.775  15.428  0.00  0.00    -0.361 N 
HETATM    5  C   UNK     0     -24.048  19.816  16.023  0.00  0.00     0.022 A 
HETATM    6  C   UNK     0     -25.249  19.671  15.336  0.00  0.00    -0.027 A 
HETATM    7  C   UNK     0     -23.773  19.040  17.273  0.00  0.00     0.115 C 
HETATM    8  C   UNK     0     -23.208  19.819  18.448  0.00  0.00     0.021 A 
HETATM    9  N   UNK     0     -23.479  21.078  18.825  0.00  0.00    -0.361 N 
HETATM   10  C   UNK     0     -22.679  21.385  19.867  0.00  0.00     0.022 A 
HETATM   11  C   UNK     0     -21.877  20.291  20.177  0.00  0.00    -0.027 A 
HETATM   12  C   UNK     0     -22.205  19.300  19.287  0.00  0.00    -0.031 A 
HETATM   13  C   UNK     0     -21.588  17.920  19.247  0.00  0.00     0.051 C 
HETATM   14  C   UNK     0     -22.600  22.734  20.577  0.00  0.00     0.115 C 
HETATM   15  C   UNK     0     -22.177  23.881  19.673  0.00  0.00     0.021 A 
HETATM   16  N   UNK     0     -22.783  24.308  18.549  0.00  0.00    -0.361 N 
HETATM   17  C   UNK     0     -22.062  25.293  18.009  0.00  0.00     0.022 A 
HETATM   18  C   UNK     0     -20.937  25.525  18.826  0.00  0.00    -0.027 A 
HETATM   19  C   UNK     0     -21.022  24.636  19.865  0.00  0.00    -0.031 A 
HETATM   20  C   UNK     0     -20.020  24.571  21.004  0.00  0.00     0.051 C 
HETATM   21  C   UNK     0     -22.268  26.054  16.719  0.00  0.00     0.115 C 
HETATM   22  C   UNK     0     -22.870  25.303  15.555  0.00  0.00     0.022 A 
HETATM   23  N   UNK     0     -22.622  24.048  15.159  0.00  0.00    -0.361 N 
HETATM   24  C   UNK     0     -23.485  23.737  14.171  0.00  0.00     0.021 A 
HETATM   25  C   UNK     0     -24.301  24.822  13.917  0.00  0.00    -0.031 A 
HETATM   26  C   UNK     0     -25.392  24.972  12.876  0.00  0.00     0.051 C 
HETATM   27  C   UNK     0     -23.927  25.837  14.790  0.00  0.00    -0.027 A 
HETATM   28  C   UNK     0     -23.651  22.401  13.468  0.00  0.00     0.115 C 
HETATM   29  H   UNK     0     -22.278  21.087  15.720  0.00  0.00     0.165 HD
HETATM   30  H   UNK     0     -24.270  21.736  18.389  0.00  0.00     0.165 HD
HETATM   31  H   UNK     0     -23.765  23.940  18.154  0.00  0.00     0.165 HD
HETATM   32  H   UNK     0     -21.806  23.383  15.545  0.00  0.00     0.165 HD
ENDROOT
BRANCH   6  33
HETATM   33  C   UNK     0     -26.405  18.738  15.592  0.00  0.00     0.051 C 
BRANCH  33  34
HETATM   34  C   UNK     0     -26.352  17.551  14.659  0.00  0.00     0.114 C 
BRANCH  34  35
HETATM   35  C   UNK     0     -25.630  16.457  15.369  0.00  0.00     0.139 C 
HETATM   36  O   UNK     0     -25.886  16.207  16.582  0.00  0.00    -0.650 OA
BRANCH  35  37
HETATM   37  O   UNK     0     -24.663  15.674  14.750  0.00  0.00    -0.776 OA
HETATM   38  H   UNK     0     -23.732  16.015  14.572  0.00  0.00     0.167 HD
ENDBRANCH  35  37
ENDBRANCH  34  35
ENDBRANCH  33  34
ENDBRANCH   6  33
BRANCH  27  39
HETATM   39  C   UNK     0     -24.539  27.194  14.766  0.00  0.00     0.051 C 
BRANCH  39  40
HETATM   40  C   UNK     0     -23.663  28.346  14.554  0.00  0.00     0.114 C 
BRANCH  40  41
HETATM   41  C   UNK     0     -23.863  29.602  15.240  0.00  0.00     0.139 C 
HETATM   42  O   UNK     0     -23.728  30.707  14.697  0.00  0.00    -0.650 OA
BRANCH  41  43
HETATM   43  O   UNK     0     -24.235  29.588  16.614  0.00  0.00    -0.776 OA
HETATM   44  H   UNK     0     -24.167  30.487  17.076  0.00  0.00     0.167 HD
ENDBRANCH  41  43
ENDBRANCH  40  41
ENDBRANCH  39  40
ENDBRANCH  27  39
BRANCH  11  45
HETATM   45  C   UNK     0     -20.841  20.159  21.261  0.00  0.00     0.051 C 
BRANCH  45  46
HETATM   46  C   UNK     0     -19.548  20.819  20.947  0.00  0.00     0.114 C 
BRANCH  46  47
HETATM   47  C   UNK     0     -18.594  19.749  20.536  0.00  0.00     0.139 C 
HETATM   48  O   UNK     0     -18.466  19.502  19.329  0.00  0.00    -0.650 OA
BRANCH  47  49
HETATM   49  O   UNK     0     -17.874  19.052  21.473  0.00  0.00    -0.776 OA
HETATM   50  H   UNK     0     -17.955  19.245  22.478  0.00  0.00     0.167 HD
ENDBRANCH  47  49
ENDBRANCH  46  47
ENDBRANCH  45  46
ENDBRANCH  11  45
BRANCH  18  51
HETATM   51  C   UNK     0     -19.852  26.554  18.637  0.00  0.00     0.051 C 
BRANCH  51  52
HETATM   52  C   UNK     0     -20.342  27.821  19.322  0.00  0.00     0.114 C 
BRANCH  52  53
HETATM   53  C   UNK     0     -19.240  28.552  19.977  0.00  0.00     0.139 C 
HETATM   54  O   UNK     0     -18.328  27.928  20.542  0.00  0.00    -0.650 OA
BRANCH  53  55
HETATM   55  O   UNK     0     -19.232  29.926  19.960  0.00  0.00    -0.776 OA
HETATM   56  H   UNK     0     -18.642  30.500  19.405  0.00  0.00     0.167 HD
ENDBRANCH  53  55
ENDBRANCH  52  53
ENDBRANCH  51  52
ENDBRANCH  18  51
TORSDOF 16
ENDMDL
MODEL 16
REMARK VINA RESULT:      -7.5     21.563     25.150
REMARK  16 active torsions:
REMARK  status: ('A' for Active; 'I' for Inactive)
REMARK    1  A    between atoms: C_6  and  C_7 
REMARK    2  A    between atoms: C_7  and  C_8 
REMARK    3  A    between atoms: C_8  and  C_9 
REMARK    4  A    between atoms: C_9  and  O_11 
REMARK    5  A    between atoms: C_16  and  C_17 
REMARK    6  A    between atoms: C_17  and  C_18 
REMARK    7  A    between atoms: C_18  and  C_19 
REMARK    8  A    between atoms: C_19  and  O_21 
REMARK    9  A    between atoms: C_28  and  C_29 
REMARK   10  A    between atoms: C_29  and  C_30 
REMARK   11  A    between atoms: C_30  and  C_31 
REMARK   12  A    between atoms: C_31  and  O_33 
REMARK   13  A    between atoms: C_42  and  C_43 
REMARK   14  A    between atoms: C_43  and  C_44 
REMARK   15  A    between atoms: C_44  and  C_45 
REMARK   16  A    between atoms: C_45  and  O_47 
ROOT
HETATM    1  C   UNK     0     -24.770  23.735  14.807  0.00  0.00     0.051 C 
HETATM    2  C   UNK     0     -23.526  23.511  15.642  0.00  0.00    -0.031 A 
HETATM    3  C   UNK     0     -22.456  24.362  15.873  0.00  0.00     0.021 A 
HETATM    4  N   UNK     0     -21.551  23.730  16.659  0.00  0.00    -0.361 N 
HETATM    5  C   UNK     0     -22.025  22.499  16.940  0.00  0.00     0.022 A 
HETATM    6  C   UNK     0     -23.257  22.327  16.318  0.00  0.00    -0.027 A 
HETATM    7  C   UNK     0     -21.459  21.444  17.838  0.00  0.00     0.115 C 
HETATM    8  C   UNK     0     -20.899  21.911  19.171  0.00  0.00     0.021 A 
HETATM    9  N   UNK     0     -21.343  22.898  19.964  0.00  0.00    -0.361 N 
HETATM   10  C   UNK     0     -20.486  23.022  20.999  0.00  0.00     0.022 A 
HETATM   11  C   UNK     0     -19.467  22.082  20.874  0.00  0.00    -0.027 A 
HETATM   12  C   UNK     0     -19.721  21.378  19.725  0.00  0.00    -0.031 A 
HETATM   13  C   UNK     0     -18.876  20.246  19.187  0.00  0.00     0.051 C 
HETATM   14  C   UNK     0     -20.562  24.061  22.114  0.00  0.00     0.115 C 
HETATM   15  C   UNK     0     -20.471  25.497  21.625  0.00  0.00     0.021 A 
HETATM   16  N   UNK     0     -21.281  26.119  20.748  0.00  0.00    -0.361 N 
HETATM   17  C   UNK     0     -20.823  27.354  20.528  0.00  0.00     0.022 A 
HETATM   18  C   UNK     0     -19.664  27.548  21.306  0.00  0.00    -0.027 A 
HETATM   19  C   UNK     0     -19.455  26.379  21.989  0.00  0.00    -0.031 A 
HETATM   20  C   UNK     0     -18.323  26.170  22.978  0.00  0.00     0.051 C 
HETATM   21  C   UNK     0     -21.325  28.422  19.583  0.00  0.00     0.115 C 
HETATM   22  C   UNK     0     -21.924  27.969  18.273  0.00  0.00     0.022 A 
HETATM   23  N   UNK     0     -21.506  26.987  17.464  0.00  0.00    -0.361 N 
HETATM   24  C   UNK     0     -22.417  26.830  16.482  0.00  0.00     0.021 A 
HETATM   25  C   UNK     0     -23.441  27.741  16.657  0.00  0.00    -0.031 A 
HETATM   26  C   UNK     0     -24.663  27.977  15.795  0.00  0.00     0.051 C 
HETATM   27  C   UNK     0     -23.148  28.481  17.796  0.00  0.00    -0.027 A 
HETATM   28  C   UNK     0     -22.427  25.782  15.383  0.00  0.00     0.115 C 
HETATM   29  H   UNK     0     -20.566  24.145  16.976  0.00  0.00     0.165 HD
HETATM   30  H   UNK     0     -22.289  23.477  19.822  0.00  0.00     0.165 HD
HETATM   31  H   UNK     0     -22.222  25.696  20.311  0.00  0.00     0.165 HD
HETATM   32  H   UNK     0     -20.541  26.423  17.555  0.00  0.00     0.165 HD
ENDROOT
BRANCH   6  33
HETATM   33  C   UNK     0     -24.185  21.139  16.314  0.00  0.00     0.051 C 
BRANCH  33  34
HETATM   34  C   UNK     0     -23.802  20.164  15.226  0.00  0.00     0.114 C 
BRANCH  34  35
HETATM   35  C   UNK     0     -23.916  18.791  15.797  0.00  0.00     0.139 C 
HETATM   36  O   UNK     0     -24.700  17.947  15.273  0.00  0.00    -0.650 OA
BRANCH  35  37
HETATM   37  O   UNK     0     -23.184  18.376  16.902  0.00  0.00    -0.776 OA
HETATM   38  H   UNK     0     -23.626  18.012  17.730  0.00  0.00     0.167 HD
ENDBRANCH  35  37
ENDBRANCH  34  35
ENDBRANCH  33  34
ENDBRANCH   6  33
BRANCH  27  39
HETATM   39  C   UNK     0     -23.992  29.613  18.266  0.00  0.00     0.051 C 
BRANCH  39  40
HETATM   40  C   UNK     0     -23.668  30.961  17.799  0.00  0.00     0.114 C 
BRANCH  40  41
HETATM   41  C   UNK     0     -24.375  31.588  16.705  0.00  0.00     0.139 C 
HETATM   42  O   UNK     0     -23.870  31.793  15.593  0.00  0.00    -0.650 OA
BRANCH  41  43
HETATM   43  O   UNK     0     -25.725  31.997  16.898  0.00  0.00    -0.776 OA
HETATM   44  H   UNK     0     -25.831  32.867  17.406  0.00  0.00     0.167 HD
ENDBRANCH  41  43
ENDBRANCH  40  41
ENDBRANCH  39  40
ENDBRANCH  27  39
BRANCH  11  45
HETATM   45  C   UNK     0     -18.295  21.836  21.787  0.00  0.00     0.051 C 
BRANCH  45  46
HETATM   46  C   UNK     0     -18.641  21.107  23.034  0.00  0.00     0.114 C 
BRANCH  46  47
HETATM   47  C   UNK     0     -18.446  19.653  22.765  0.00  0.00     0.139 C 
HETATM   48  O   UNK     0     -19.443  18.954  22.536  0.00  0.00    -0.650 OA
BRANCH  47  49
HETATM   49  O   UNK     0     -17.191  19.100  22.772  0.00  0.00    -0.776 OA
HETATM   50  H   UNK     0     -16.887  18.447  23.504  0.00  0.00     0.167 HD
ENDBRANCH  47  49
ENDBRANCH  46  47
ENDBRANCH  45  46
ENDBRANCH  11  45
BRANCH  18  51
HETATM   51  C   UNK     0     -18.815  28.789  21.409  0.00  0.00     0.051 C 
BRANCH  51  52
HETATM   52  C   UNK     0     -19.340  29.566  22.607  0.00  0.00     0.114 C 
BRANCH  52  53
HETATM   53  C   UNK     0     -19.954  30.846  22.205  0.00  0.00     0.139 C 
HETATM   54  O   UNK     0     -20.906  31.309  22.854  0.00  0.00    -0.650 OA
BRANCH  53  55
HETATM   55  O   UNK     0     -19.469  31.519  21.110  0.00  0.00    -0.776 OA
HETATM   56  H   UNK     0     -20.011  31.888  20.364  0.00  0.00     0.167 HD
ENDBRANCH  53  55
ENDBRANCH  52  53
ENDBRANCH  51  52
ENDBRANCH  18  51
TORSDOF 16
ENDMDL
MODEL 17
REMARK VINA RESULT:      -7.5     18.004     20.485
REMARK  16 active torsions:
REMARK  status: ('A' for Active; 'I' for Inactive)
REMARK    1  A    between atoms: C_6  and  C_7 
REMARK    2  A    between atoms: C_7  and  C_8 
REMARK    3  A    between atoms: C_8  and  C_9 
REMARK    4  A    between atoms: C_9  and  O_11 
REMARK    5  A    between atoms: C_16  and  C_17 
REMARK    6  A    between atoms: C_17  and  C_18 
REMARK    7  A    between atoms: C_18  and  C_19 
REMARK    8  A    between atoms: C_19  and  O_21 
REMARK    9  A    between atoms: C_28  and  C_29 
REMARK   10  A    between atoms: C_29  and  C_30 
REMARK   11  A    between atoms: C_30  and  C_31 
REMARK   12  A    between atoms: C_31  and  O_33 
REMARK   13  A    between atoms: C_42  and  C_43 
REMARK   14  A    between atoms: C_43  and  C_44 
REMARK   15  A    between atoms: C_44  and  C_45 
REMARK   16  A    between atoms: C_45  and  O_47 
ROOT
HETATM    1  C   UNK     0     -23.236  15.684  18.556  0.00  0.00     0.051 C 
HETATM    2  C   UNK     0     -23.777  16.980  17.985  0.00  0.00    -0.031 A 
HETATM    3  C   UNK     0     -23.805  18.245  18.550  0.00  0.00     0.021 A 
HETATM    4  N   UNK     0     -24.412  19.098  17.690  0.00  0.00    -0.361 N 
HETATM    5  C   UNK     0     -24.763  18.405  16.587  0.00  0.00     0.022 A 
HETATM    6  C   UNK     0     -24.383  17.076  16.739  0.00  0.00    -0.027 A 
HETATM    7  C   UNK     0     -25.373  18.894  15.310  0.00  0.00     0.115 C 
HETATM    8  C   UNK     0     -24.821  20.189  14.743  0.00  0.00     0.021 A 
HETATM    9  N   UNK     0     -23.558  20.641  14.767  0.00  0.00    -0.361 N 
HETATM   10  C   UNK     0     -23.545  21.879  14.227  0.00  0.00     0.022 A 
HETATM   11  C   UNK     0     -24.834  22.230  13.837  0.00  0.00    -0.027 A 
HETATM   12  C   UNK     0     -25.643  21.170  14.159  0.00  0.00    -0.031 A 
HETATM   13  C   UNK     0     -27.133  21.101  13.912  0.00  0.00     0.051 C 
HETATM   14  C   UNK     0     -22.332  22.797  14.107  0.00  0.00     0.115 C 
HETATM   15  C   UNK     0     -21.707  23.169  15.442  0.00  0.00     0.021 A 
HETATM   16  N   UNK     0     -21.207  22.338  16.375  0.00  0.00    -0.361 N 
HETATM   17  C   UNK     0     -20.816  23.052  17.434  0.00  0.00     0.022 A 
HETATM   18  C   UNK     0     -21.065  24.414  17.174  0.00  0.00    -0.027 A 
HETATM   19  C   UNK     0     -21.622  24.475  15.922  0.00  0.00    -0.031 A 
HETATM   20  C   UNK     0     -22.012  25.770  15.234  0.00  0.00     0.051 C 
HETATM   21  C   UNK     0     -20.259  22.594  18.762  0.00  0.00     0.115 C 
HETATM   22  C   UNK     0     -20.767  21.284  19.318  0.00  0.00     0.022 A 
HETATM   23  N   UNK     0     -22.019  20.807  19.305  0.00  0.00    -0.361 N 
HETATM   24  C   UNK     0     -21.995  19.544  19.775  0.00  0.00     0.021 A 
HETATM   25  C   UNK     0     -20.698  19.203  20.109  0.00  0.00    -0.031 A 
HETATM   26  C   UNK     0     -20.176  17.915  20.711  0.00  0.00     0.051 C 
HETATM   27  C   UNK     0     -19.894  20.301  19.825  0.00  0.00    -0.027 A 
HETATM   28  C   UNK     0     -23.152  18.563  19.865  0.00  0.00     0.115 C 
HETATM   29  H   UNK     0     -24.624  20.175  17.886  0.00  0.00     0.165 HD
HETATM   30  H   UNK     0     -22.664  20.069  15.118  0.00  0.00     0.165 HD
HETATM   31  H   UNK     0     -21.083  21.229  16.267  0.00  0.00     0.165 HD
HETATM   32  H   UNK     0     -22.938  21.373  19.004  0.00  0.00     0.165 HD
ENDROOT
BRANCH   6  33
HETATM   33  C   UNK     0     -24.552  15.906  15.804  0.00  0.00     0.051 C 
BRANCH  33  34
HETATM   34  C   UNK     0     -25.877  15.220  16.038  0.00  0.00     0.114 C 
BRANCH  34  35
HETATM   35  C   UNK     0     -26.827  15.719  15.003  0.00  0.00     0.139 C 
HETATM   36  O   UNK     0     -27.938  16.219  15.345  0.00  0.00    -0.650 OA
BRANCH  35  37
HETATM   37  O   UNK     0     -26.548  15.665  13.643  0.00  0.00    -0.776 OA
HETATM   38  H   UNK     0     -25.647  15.384  13.292  0.00  0.00     0.167 HD
ENDBRANCH  35  37
ENDBRANCH  34  35
ENDBRANCH  33  34
ENDBRANCH   6  33
BRANCH  27  39
HETATM   39  C   UNK     0     -18.436  20.336  20.121  0.00  0.00     0.051 C 
BRANCH  39  40
HETATM   40  C   UNK     0     -18.005  20.829  21.429  0.00  0.00     0.114 C 
BRANCH  40  41
HETATM   41  C   UNK     0     -18.011  19.992  22.608  0.00  0.00     0.139 C 
HETATM   42  O   UNK     0     -18.710  20.220  23.604  0.00  0.00    -0.650 OA
BRANCH  41  43
HETATM   43  O   UNK     0     -17.174  18.841  22.643  0.00  0.00    -0.776 OA
HETATM   44  H   UNK     0     -17.359  18.211  23.414  0.00  0.00     0.167 HD
ENDBRANCH  41  43
ENDBRANCH  40  41
ENDBRANCH  39  40
ENDBRANCH  27  39
BRANCH  11  45
HETATM   45  C   UNK     0     -25.307  23.501  13.184  0.00  0.00     0.051 C 
BRANCH  45  46
HETATM   46  C   UNK     0     -25.490  24.634  14.127  0.00  0.00     0.114 C 
BRANCH  46  47
HETATM   47  C   UNK     0     -25.590  25.877  13.309  0.00  0.00     0.139 C 
HETATM   48  O   UNK     0     -26.174  25.822  12.217  0.00  0.00    -0.650 OA
BRANCH  47  49
HETATM   49  O   UNK     0     -25.048  27.056  13.754  0.00  0.00    -0.776 OA
HETATM   50  H   UNK     0     -24.039  27.171  13.900  0.00  0.00     0.167 HD
ENDBRANCH  47  49
ENDBRANCH  46  47
ENDBRANCH  45  46
ENDBRANCH  11  45
BRANCH  18  51
HETATM   51  C   UNK     0     -20.768  25.596  18.060  0.00  0.00     0.051 C 
BRANCH  51  52
HETATM   52  C   UNK     0     -22.001  25.797  18.929  0.00  0.00     0.114 C 
BRANCH  52  53
HETATM   53  C   UNK     0     -21.646  26.015  20.344  0.00  0.00     0.139 C 
HETATM   54  O   UNK     0     -20.676  25.421  20.841  0.00  0.00    -0.650 OA
BRANCH  53  55
HETATM   55  O   UNK     0     -22.397  26.875  21.108  0.00  0.00    -0.776 OA
HETATM   56  H   UNK     0     -22.951  27.626  20.769  0.00  0.00     0.167 HD
ENDBRANCH  53  55
ENDBRANCH  52  53
ENDBRANCH  51  52
ENDBRANCH  18  51
TORSDOF 16
ENDMDL
MODEL 18
REMARK VINA RESULT:      -7.5     17.879     21.072
REMARK  16 active torsions:
REMARK  status: ('A' for Active; 'I' for Inactive)
REMARK    1  A    between atoms: C_6  and  C_7 
REMARK    2  A    between atoms: C_7  and  C_8 
REMARK    3  A    between atoms: C_8  and  C_9 
REMARK    4  A    between atoms: C_9  and  O_11 
REMARK    5  A    between atoms: C_16  and  C_17 
REMARK    6  A    between atoms: C_17  and  C_18 
REMARK    7  A    between atoms: C_18  and  C_19 
REMARK    8  A    between atoms: C_19  and  O_21 
REMARK    9  A    between atoms: C_28  and  C_29 
REMARK   10  A    between atoms: C_29  and  C_30 
REMARK   11  A    between atoms: C_30  and  C_31 
REMARK   12  A    between atoms: C_31  and  O_33 
REMARK   13  A    between atoms: C_42  and  C_43 
REMARK   14  A    between atoms: C_43  and  C_44 
REMARK   15  A    between atoms: C_44  and  C_45 
REMARK   16  A    between atoms: C_45  and  O_47 
ROOT
HETATM    1  C   UNK     0     -25.150  23.336  13.457  0.00  0.00     0.051 C 
HETATM    2  C   UNK     0     -24.645  22.031  14.039  0.00  0.00    -0.031 A 
HETATM    3  C   UNK     0     -23.348  21.648  14.343  0.00  0.00     0.021 A 
HETATM    4  N   UNK     0     -23.362  20.379  14.816  0.00  0.00    -0.361 N 
HETATM    5  C   UNK     0     -24.641  19.948  14.827  0.00  0.00     0.022 A 
HETATM    6  C   UNK     0     -25.469  20.956  14.345  0.00  0.00    -0.027 A 
HETATM    7  C   UNK     0     -25.208  18.662  15.341  0.00  0.00     0.115 C 
HETATM    8  C   UNK     0     -24.662  18.158  16.666  0.00  0.00     0.021 A 
HETATM    9  N   UNK     0     -24.280  18.869  17.738  0.00  0.00    -0.361 N 
HETATM   10  C   UNK     0     -23.775  18.013  18.651  0.00  0.00     0.022 A 
HETATM   11  C   UNK     0     -23.842  16.713  18.157  0.00  0.00    -0.027 A 
HETATM   12  C   UNK     0     -24.400  16.797  16.907  0.00  0.00    -0.031 A 
HETATM   13  C   UNK     0     -24.673  15.625  15.991  0.00  0.00     0.051 C 
HETATM   14  C   UNK     0     -23.163  18.388  19.997  0.00  0.00     0.115 C 
HETATM   15  C   UNK     0     -21.941  19.286  19.889  0.00  0.00     0.021 A 
HETATM   16  N   UNK     0     -21.863  20.501  19.314  0.00  0.00    -0.361 N 
HETATM   17  C   UNK     0     -20.599  20.929  19.364  0.00  0.00     0.022 A 
HETATM   18  C   UNK     0     -19.819  19.951  20.011  0.00  0.00    -0.027 A 
HETATM   19  C   UNK     0     -20.671  18.927  20.336  0.00  0.00    -0.031 A 
HETATM   20  C   UNK     0     -20.243  17.677  21.083  0.00  0.00     0.051 C 
HETATM   21  C   UNK     0     -19.976  22.187  18.801  0.00  0.00     0.115 C 
HETATM   22  C   UNK     0     -20.539  22.724  17.506  0.00  0.00     0.022 A 
HETATM   23  N   UNK     0     -20.931  22.039  16.424  0.00  0.00    -0.361 N 
HETATM   24  C   UNK     0     -21.502  22.903  15.560  0.00  0.00     0.021 A 
HETATM   25  C   UNK     0     -21.467  24.176  16.095  0.00  0.00    -0.031 A 
HETATM   26  C   UNK     0     -21.945  25.479  15.487  0.00  0.00     0.051 C 
HETATM   27  C   UNK     0     -20.854  24.088  17.340  0.00  0.00    -0.027 A 
HETATM   28  C   UNK     0     -22.178  22.584  14.238  0.00  0.00     0.115 C 
HETATM   29  H   UNK     0     -22.465  19.782  15.100  0.00  0.00     0.165 HD
HETATM   30  H   UNK     0     -24.411  19.970  17.873  0.00  0.00     0.165 HD
HETATM   31  H   UNK     0     -22.725  21.091  18.907  0.00  0.00     0.165 HD
HETATM   32  H   UNK     0     -20.770  20.945  16.241  0.00  0.00     0.165 HD
ENDROOT
BRANCH   6  33
HETATM   33  C   UNK     0     -26.965  20.974  14.153  0.00  0.00     0.051 C 
BRANCH  33  34
HETATM   34  C   UNK     0     -27.344  20.317  12.847  0.00  0.00     0.114 C 
BRANCH  34  35
HETATM   35  C   UNK     0     -28.380  19.288  13.150  0.00  0.00     0.139 C 
HETATM   36  O   UNK     0     -28.611  18.949  14.347  0.00  0.00    -0.650 OA
BRANCH  35  37
HETATM   37  O   UNK     0     -29.129  18.665  12.159  0.00  0.00    -0.776 OA
HETATM   38  H   UNK     0     -28.764  17.900  11.615  0.00  0.00     0.167 HD
ENDBRANCH  35  37
ENDBRANCH  34  35
ENDBRANCH  33  34
ENDBRANCH   6  33
BRANCH  27  39
HETATM   39  C   UNK     0     -20.572  25.275  18.191  0.00  0.00     0.051 C 
BRANCH  39  40
HETATM   40  C   UNK     0     -21.472  25.557  19.309  0.00  0.00     0.114 C 
BRANCH  40  41
HETATM   41  C   UNK     0     -22.788  24.967  19.407  0.00  0.00     0.139 C 
HETATM   42  O   UNK     0     -23.789  25.431  18.844  0.00  0.00    -0.650 OA
BRANCH  41  43
HETATM   43  O   UNK     0     -22.961  23.789  20.188  0.00  0.00    -0.776 OA
HETATM   44  H   UNK     0     -23.533  23.076  19.750  0.00  0.00     0.167 HD
ENDBRANCH  41  43
ENDBRANCH  40  41
ENDBRANCH  39  40
ENDBRANCH  27  39
BRANCH  11  45
HETATM   45  C   UNK     0     -23.409  15.431  18.817  0.00  0.00     0.051 C 
BRANCH  45  46
HETATM   46  C   UNK     0     -24.339  14.947  19.869  0.00  0.00     0.114 C 
BRANCH  46  47
HETATM   47  C   UNK     0     -25.144  13.843  19.273  0.00  0.00     0.139 C 
HETATM   48  O   UNK     0     -26.249  14.114  18.782  0.00  0.00    -0.650 OA
BRANCH  47  49
HETATM   49  O   UNK     0     -24.674  12.554  19.268  0.00  0.00    -0.776 OA
HETATM   50  H   UNK     0     -25.134  11.804  19.798  0.00  0.00     0.167 HD
ENDBRANCH  47  49
ENDBRANCH  46  47
ENDBRANCH  45  46
ENDBRANCH  11  45
BRANCH  18  51
HETATM   51  C   UNK     0     -18.345  19.998  20.322  0.00  0.00     0.051 C 
BRANCH  51  52
HETATM   52  C   UNK     0     -18.214  20.715  21.657  0.00  0.00     0.114 C 
BRANCH  52  53
HETATM   53  C   UNK     0     -18.041  19.767  22.775  0.00  0.00     0.139 C 
HETATM   54  O   UNK     0     -18.675  19.928  23.830  0.00  0.00    -0.650 OA
BRANCH  53  55
HETATM   55  O   UNK     0     -17.173  18.710  22.642  0.00  0.00    -0.776 OA
HETATM   56  H   UNK     0     -16.643  18.294  23.371  0.00  0.00     0.167 HD
ENDBRANCH  53  55
ENDBRANCH  52  53
ENDBRANCH  51  52
ENDBRANCH  18  51
TORSDOF 16
ENDMDL
MODEL 19
REMARK VINA RESULT:      -7.4     17.478     20.185
REMARK  16 active torsions:
REMARK  status: ('A' for Active; 'I' for Inactive)
REMARK    1  A    between atoms: C_6  and  C_7 
REMARK    2  A    between atoms: C_7  and  C_8 
REMARK    3  A    between atoms: C_8  and  C_9 
REMARK    4  A    between atoms: C_9  and  O_11 
REMARK    5  A    between atoms: C_16  and  C_17 
REMARK    6  A    between atoms: C_17  and  C_18 
REMARK    7  A    between atoms: C_18  and  C_19 
REMARK    8  A    between atoms: C_19  and  O_21 
REMARK    9  A    between atoms: C_28  and  C_29 
REMARK   10  A    between atoms: C_29  and  C_30 
REMARK   11  A    between atoms: C_30  and  C_31 
REMARK   12  A    between atoms: C_31  and  O_33 
REMARK   13  A    between atoms: C_42  and  C_43 
REMARK   14  A    between atoms: C_43  and  C_44 
REMARK   15  A    between atoms: C_44  and  C_45 
REMARK   16  A    between atoms: C_45  and  O_47 
ROOT
HETATM    1  C   UNK     0     -26.674  14.780  17.508  0.00  0.00     0.051 C 
HETATM    2  C   UNK     0     -25.367  15.337  18.035  0.00  0.00    -0.031 A 
HETATM    3  C   UNK     0     -24.349  15.985  17.353  0.00  0.00     0.021 A 
HETATM    4  N   UNK     0     -23.354  16.281  18.224  0.00  0.00    -0.361 N 
HETATM    5  C   UNK     0     -23.721  15.844  19.446  0.00  0.00     0.022 A 
HETATM    6  C   UNK     0     -24.974  15.246  19.364  0.00  0.00    -0.027 A 
HETATM    7  C   UNK     0     -23.026  16.005  20.763  0.00  0.00     0.115 C 
HETATM    8  C   UNK     0     -22.419  17.367  21.050  0.00  0.00     0.021 A 
HETATM    9  N   UNK     0     -22.882  18.579  20.705  0.00  0.00    -0.361 N 
HETATM   10  C   UNK     0     -21.972  19.500  21.089  0.00  0.00     0.022 A 
HETATM   11  C   UNK     0     -20.899  18.865  21.707  0.00  0.00    -0.027 A 
HETATM   12  C   UNK     0     -21.174  17.521  21.686  0.00  0.00    -0.031 A 
HETATM   13  C   UNK     0     -20.286  16.438  22.255  0.00  0.00     0.051 C 
HETATM   14  C   UNK     0     -22.053  21.003  20.842  0.00  0.00     0.115 C 
HETATM   15  C   UNK     0     -22.094  21.384  19.370  0.00  0.00     0.021 A 
HETATM   16  N   UNK     0     -23.000  21.006  18.449  0.00  0.00    -0.361 N 
HETATM   17  C   UNK     0     -22.645  21.496  17.259  0.00  0.00     0.022 A 
HETATM   18  C   UNK     0     -21.457  22.237  17.414  0.00  0.00    -0.027 A 
HETATM   19  C   UNK     0     -21.123  22.161  18.741  0.00  0.00    -0.031 A 
HETATM   20  C   UNK     0     -19.919  22.856  19.350  0.00  0.00     0.051 C 
HETATM   21  C   UNK     0     -23.279  21.302  15.900  0.00  0.00     0.115 C 
HETATM   22  C   UNK     0     -23.926  19.967  15.616  0.00  0.00     0.022 A 
HETATM   23  N   UNK     0     -23.490  18.746  15.952  0.00  0.00    -0.361 N 
HETATM   24  C   UNK     0     -24.447  17.851  15.630  0.00  0.00     0.021 A 
HETATM   25  C   UNK     0     -25.520  18.512  15.064  0.00  0.00    -0.031 A 
HETATM   26  C   UNK     0     -26.808  17.938  14.510  0.00  0.00     0.051 C 
HETATM   27  C   UNK     0     -25.210  19.867  15.044  0.00  0.00    -0.027 A 
HETATM   28  C   UNK     0     -24.451  16.357  15.901  0.00  0.00     0.115 C 
HETATM   29  H   UNK     0     -22.384  16.761  17.961  0.00  0.00     0.165 HD
HETATM   30  H   UNK     0     -23.873  18.792  20.235  0.00  0.00     0.165 HD
HETATM   31  H   UNK     0     -23.934  20.420  18.650  0.00  0.00     0.165 HD
HETATM   32  H   UNK     0     -22.484  18.498  16.380  0.00  0.00     0.165 HD
ENDROOT
BRANCH   6  33
HETATM   33  C   UNK     0     -25.814  14.601  20.437  0.00  0.00     0.051 C 
BRANCH  33  34
HETATM   34  C   UNK     0     -25.308  13.213  20.750  0.00  0.00     0.114 C 
BRANCH  34  35
HETATM   35  C   UNK     0     -26.474  12.287  20.684  0.00  0.00     0.139 C 
HETATM   36  O   UNK     0     -26.555  11.305  21.479  0.00  0.00    -0.650 OA
BRANCH  35  37
HETATM   37  O   UNK     0     -27.509  12.450  19.771  0.00  0.00    -0.776 OA
HETATM   38  H   UNK     0     -27.382  12.290  18.785  0.00  0.00     0.167 HD
ENDBRANCH  35  37
ENDBRANCH  34  35
ENDBRANCH  33  34
ENDBRANCH   6  33
BRANCH  27  39
HETATM   39  C   UNK     0     -26.102  20.894  14.438  0.00  0.00     0.051 C 
BRANCH  39  40
HETATM   40  C   UNK     0     -25.823  21.336  13.073  0.00  0.00     0.114 C 
BRANCH  40  41
HETATM   41  C   UNK     0     -24.875  22.389  12.782  0.00  0.00     0.139 C 
HETATM   42  O   UNK     0     -23.647  22.232  12.819  0.00  0.00    -0.650 OA
BRANCH  41  43
HETATM   43  O   UNK     0     -25.363  23.680  12.434  0.00  0.00    -0.776 OA
HETATM   44  H   UNK     0     -24.677  24.422  12.513  0.00  0.00     0.167 HD
ENDBRANCH  41  43
ENDBRANCH  40  41
ENDBRANCH  39  40
ENDBRANCH  27  39
BRANCH  11  45
HETATM   45  C   UNK     0     -19.659  19.476  22.301  0.00  0.00     0.051 C 
BRANCH  45  46
HETATM   46  C   UNK     0     -18.834  20.238  21.330  0.00  0.00     0.114 C 
BRANCH  46  47
HETATM   47  C   UNK     0     -18.282  19.257  20.352  0.00  0.00     0.139 C 
HETATM   48  O   UNK     0     -18.545  19.406  19.151  0.00  0.00    -0.650 OA
BRANCH  47  49
HETATM   49  O   UNK     0     -17.501  18.210  20.772  0.00  0.00    -0.776 OA
HETATM   50  H   UNK     0     -16.858  17.721  20.138  0.00  0.00     0.167 HD
ENDBRANCH  47  49
ENDBRANCH  46  47
ENDBRANCH  45  46
ENDBRANCH  11  45
BRANCH  18  51
HETATM   51  C   UNK     0     -20.693  22.995  16.359  0.00  0.00     0.051 C 
BRANCH  51  52
HETATM   52  C   UNK     0     -21.286  24.396  16.328  0.00  0.00     0.114 C 
BRANCH  52  53
HETATM   53  C   UNK     0     -21.818  24.738  14.995  0.00  0.00     0.139 C 
HETATM   54  O   UNK     0     -22.422  25.809  14.823  0.00  0.00    -0.650 OA
BRANCH  53  55
HETATM   55  O   UNK     0     -21.644  23.864  13.949  0.00  0.00    -0.776 OA
HETATM   56  H   UNK     0     -22.231  23.783  13.153  0.00  0.00     0.167 HD
ENDBRANCH  53  55
ENDBRANCH  52  53
ENDBRANCH  51  52
ENDBRANCH  18  51
TORSDOF 16
ENDMDL
MODEL 20
REMARK VINA RESULT:      -7.4     19.914     23.066
REMARK  16 active torsions:
REMARK  status: ('A' for Active; 'I' for Inactive)
REMARK    1  A    between atoms: C_6  and  C_7 
REMARK    2  A    between atoms: C_7  and  C_8 
REMARK    3  A    between atoms: C_8  and  C_9 
REMARK    4  A    between atoms: C_9  and  O_11 
REMARK    5  A    between atoms: C_16  and  C_17 
REMARK    6  A    between atoms: C_17  and  C_18 
REMARK    7  A    between atoms: C_18  and  C_19 
REMARK    8  A    between atoms: C_19  and  O_21 
REMARK    9  A    between atoms: C_28  and  C_29 
REMARK   10  A    between atoms: C_29  and  C_30 
REMARK   11  A    between atoms: C_30  and  C_31 
REMARK   12  A    between atoms: C_31  and  O_33 
REMARK   13  A    between atoms: C_42  and  C_43 
REMARK   14  A    between atoms: C_43  and  C_44 
REMARK   15  A    between atoms: C_44  and  C_45 
REMARK   16  A    between atoms: C_45  and  O_47 
ROOT
HETATM    1  C   UNK     0     -18.535  21.363  24.633  0.00  0.00     0.051 C 
HETATM    2  C   UNK     0     -18.856  21.545  23.163  0.00  0.00    -0.031 A 
HETATM    3  C   UNK     0     -18.800  20.623  22.130  0.00  0.00     0.021 A 
HETATM    4  N   UNK     0     -19.145  21.236  20.973  0.00  0.00    -0.361 N 
HETATM    5  C   UNK     0     -19.429  22.526  21.248  0.00  0.00     0.022 A 
HETATM    6  C   UNK     0     -19.256  22.754  22.609  0.00  0.00    -0.027 A 
HETATM    7  C   UNK     0     -19.948  23.600  20.343  0.00  0.00     0.115 C 
HETATM    8  C   UNK     0     -21.049  23.204  19.376  0.00  0.00     0.021 A 
HETATM    9  N   UNK     0     -22.055  22.336  19.564  0.00  0.00    -0.361 N 
HETATM   10  C   UNK     0     -22.737  22.226  18.404  0.00  0.00     0.022 A 
HETATM   11  C   UNK     0     -22.159  23.054  17.445  0.00  0.00    -0.027 A 
HETATM   12  C   UNK     0     -21.096  23.672  18.050  0.00  0.00    -0.031 A 
HETATM   13  C   UNK     0     -20.172  24.670  17.388  0.00  0.00     0.051 C 
HETATM   14  C   UNK     0     -23.922  21.302  18.139  0.00  0.00     0.115 C 
HETATM   15  C   UNK     0     -23.600  19.826  18.305  0.00  0.00     0.021 A 
HETATM   16  N   UNK     0     -23.136  19.205  19.406  0.00  0.00    -0.361 N 
HETATM   17  C   UNK     0     -22.915  17.919  19.124  0.00  0.00     0.022 A 
HETATM   18  C   UNK     0     -23.261  17.688  17.778  0.00  0.00    -0.027 A 
HETATM   19  C   UNK     0     -23.690  18.890  17.277  0.00  0.00    -0.031 A 
HETATM   20  C   UNK     0     -24.195  19.081  15.858  0.00  0.00     0.051 C 
HETATM   21  C   UNK     0     -22.333  16.822  19.985  0.00  0.00     0.115 C 
HETATM   22  C   UNK     0     -21.267  17.210  20.984  0.00  0.00     0.022 A 
HETATM   23  N   UNK     0     -20.256  18.074  20.825  0.00  0.00    -0.361 N 
HETATM   24  C   UNK     0     -19.639  18.226  22.014  0.00  0.00     0.021 A 
HETATM   25  C   UNK     0     -20.261  17.433  22.959  0.00  0.00    -0.031 A 
HETATM   26  C   UNK     0     -19.908  17.234  24.418  0.00  0.00     0.051 C 
HETATM   27  C   UNK     0     -21.306  16.772  22.323  0.00  0.00    -0.027 A 
HETATM   28  C   UNK     0     -18.497  19.169  22.354  0.00  0.00     0.115 C 
HETATM   29  H   UNK     0     -19.148  20.762  19.964  0.00  0.00     0.165 HD
HETATM   30  H   UNK     0     -22.317  21.836  20.529  0.00  0.00     0.165 HD
HETATM   31  H   UNK     0     -23.006  19.673  20.416  0.00  0.00     0.165 HD
HETATM   32  H   UNK     0     -19.942  18.552  19.861  0.00  0.00     0.165 HD
ENDROOT
BRANCH   6  33
HETATM   33  C   UNK     0     -19.436  24.018  23.411  0.00  0.00     0.051 C 
BRANCH  33  34
HETATM   34  C   UNK     0     -18.174  24.848  23.392  0.00  0.00     0.114 C 
BRANCH  34  35
HETATM   35  C   UNK     0     -18.486  26.118  22.676  0.00  0.00     0.139 C 
HETATM   36  O   UNK     0     -17.551  26.866  22.268  0.00  0.00    -0.650 OA
BRANCH  35  37
HETATM   37  O   UNK     0     -19.787  26.536  22.424  0.00  0.00    -0.776 OA
HETATM   38  H   UNK     0     -20.569  25.902  22.461  0.00  0.00     0.167 HD
ENDBRANCH  35  37
ENDBRANCH  34  35
ENDBRANCH  33  34
ENDBRANCH   6  33
BRANCH  27  39
HETATM   39  C   UNK     0     -22.166  15.769  23.007  0.00  0.00     0.051 C 
BRANCH  39  40
HETATM   40  C   UNK     0     -22.134  14.387  22.531  0.00  0.00     0.114 C 
BRANCH  40  41
HETATM   41  C   UNK     0     -23.267  13.770  21.879  0.00  0.00     0.139 C 
HETATM   42  O   UNK     0     -24.338  13.528  22.453  0.00  0.00    -0.650 OA
BRANCH  41  43
HETATM   43  O   UNK     0     -23.164  13.414  20.504  0.00  0.00    -0.776 OA
HETATM   44  H   UNK     0     -22.219  13.232  20.188  0.00  0.00     0.167 HD
ENDBRANCH  41  43
ENDBRANCH  40  41
ENDBRANCH  39  40
ENDBRANCH  27  39
BRANCH  11  45
HETATM   45  C   UNK     0     -22.576  23.271  16.015  0.00  0.00     0.051 C 
BRANCH  45  46
HETATM   46  C   UNK     0     -22.092  22.226  15.077  0.00  0.00     0.114 C 
BRANCH  46  47
HETATM   47  C   UNK     0     -22.821  22.415  13.791  0.00  0.00     0.139 C 
HETATM   48  O   UNK     0     -23.793  21.686  13.548  0.00  0.00    -0.650 OA
BRANCH  47  49
HETATM   49  O   UNK     0     -22.424  23.373  12.892  0.00  0.00    -0.776 OA
HETATM   50  H   UNK     0     -23.056  23.737  12.169  0.00  0.00     0.167 HD
ENDBRANCH  47  49
ENDBRANCH  46  47
ENDBRANCH  45  46
ENDBRANCH  11  45
BRANCH  18  51
HETATM   51  C   UNK     0     -23.207  16.389  17.017  0.00  0.00     0.051 C 
BRANCH  51  52
HETATM   52  C   UNK     0     -24.554  15.714  17.230  0.00  0.00     0.114 C 
BRANCH  52  53
HETATM   53  C   UNK     0     -25.290  15.544  15.963  0.00  0.00     0.139 C 
HETATM   54  O   UNK     0     -26.505  15.290  15.979  0.00  0.00    -0.650 OA
BRANCH  53  55
HETATM   55  O   UNK     0     -24.623  15.664  14.768  0.00  0.00    -0.776 OA
HETATM   56  H   UNK     0     -24.783  15.122  13.952  0.00  0.00     0.167 HD
ENDBRANCH  53  55
ENDBRANCH  52  53
ENDBRANCH  51  52
ENDBRANCH  18  51
TORSDOF 16
ENDMDL
