MODEL 1
REMARK VINA RESULT:      -7.2      0.000      0.000
REMARK  28 active torsions:
REMARK  status: ('A' for Active; 'I' for Inactive)
REMARK    1  A    between atoms: C_2  and  O_3 
REMARK    2  A    between atoms: C_2  and  C_4 
REMARK    3  A    between atoms: C_4  and  C_5 
REMARK    4  A    between atoms: C_5  and  C_6 
REMARK    5  A    between atoms: C_7  and  C_8 
REMARK    6  A    between atoms: C_8  and  C_9 
REMARK    7  A    between atoms: C_9  and  O_11 
REMARK    8  A    between atoms: C_28  and  C_29 
REMARK    9  A    between atoms: C_29  and  C_30 
REMARK   10  A    between atoms: C_30  and  O_32 
REMARK   11  A    between atoms: C_33  and  C_34 
REMARK   12  A    between atoms: C_34  and  C_35 
REMARK   13  A    between atoms: C_35  and  C_36 
REMARK   14  A    between atoms: C_36  and  O_38 
REMARK   15  A    between atoms: C_39  and  C_40 
REMARK   16  A    between atoms: C_40  and  C_41 
REMARK   17  A    between atoms: C_41  and  C_42 
REMARK   18  A    between atoms: C_42  and  O_44 
REMARK   19  A    between atoms: C_45  and  C_46 
REMARK   20  A    between atoms: C_46  and  C_47 
REMARK   21  A    between atoms: C_47  and  O_49 
REMARK   22  A    between atoms: C_50  and  C_51 
REMARK   23  A    between atoms: C_51  and  C_52 
REMARK   24  A    between atoms: C_52  and  O_54 
REMARK   25  A    between atoms: C_55  and  C_56 
REMARK   26  A    between atoms: C_56  and  C_57 
REMARK   27  A    between atoms: C_57  and  C_58 
REMARK   28  A    between atoms: C_58  and  O_60 
ROOT
ATOM      1  O   UNK d   0     -43.454  19.195   4.654  0.00  0.00    -0.650 OA
ATOM      2  C   UNK d   0     -44.007  18.074   4.606  0.00  0.00     0.139 C 
ENDROOT
BRANCH   2   3
ATOM      3  O   UNK d   0     -44.400  17.466   5.774  0.00  0.00    -0.776 OA
ATOM      4  H   UNK d   0     -45.322  17.643   6.177  0.00  0.00     0.167 HD
ENDBRANCH   2   3
BRANCH   2   5
ATOM      5  C   UNK d   0     -44.234  17.407   3.292  0.00  0.00     0.115 C 
BRANCH   5   6
ATOM      6  C   UNK d   0     -43.183  16.358   3.055  0.00  0.00     0.052 C 
BRANCH   6   7
ATOM      7  C   UNK d   0     -41.915  16.929   2.465  0.00  0.00    -0.020 A 
ATOM      8  C   UNK d   0     -40.716  16.920   2.990  0.00  0.00    -0.011 A 
ATOM      9  C   UNK d   0     -39.820  17.592   2.064  0.00  0.00     0.067 A 
ATOM     10  C   UNK d   0     -38.449  17.890   2.017  0.00  0.00     0.062 C 
ATOM     11  N   UNK d   0     -40.559  17.983   1.004  0.00  0.00    -0.248 NA
ATOM     12  C   UNK d   0     -37.710  18.305   0.905  0.00  0.00     0.041 A 
ATOM     13  N   UNK d   0     -37.993  19.193  -0.067  0.00  0.00    -0.355 N 
ATOM     14  C   UNK d   0     -36.465  17.700   0.651  0.00  0.00    -0.022 A 
ATOM     15  C   UNK d   0     -36.963  19.162  -0.934  0.00  0.00     0.042 A 
ATOM     16  H   UNK d   0     -38.893  19.844  -0.128  0.00  0.00     0.166 HD
ATOM     17  C   UNK d   0     -36.747  19.890  -2.122  0.00  0.00     0.062 C 
ATOM     18  C   UNK d   0     -35.986  18.238  -0.518  0.00  0.00    -0.013 A 
ATOM     19  C   UNK d   0     -37.623  20.153  -3.143  0.00  0.00     0.067 A 
ATOM     20  N   UNK d   0     -38.909  19.865  -2.926  0.00  0.00    -0.248 NA
ATOM     21  C   UNK d   0     -37.525  20.683  -4.493  0.00  0.00    -0.011 A 
ATOM     22  C   UNK d   0     -39.659  20.167  -4.037  0.00  0.00     0.066 A 
ATOM     23  C   UNK d   0     -41.025  19.951  -3.935  0.00  0.00     0.062 C 
ATOM     24  C   UNK d   0     -38.719  20.684  -5.012  0.00  0.00    -0.020 A 
ATOM     25  C   UNK d   0     -41.751  19.546  -2.804  0.00  0.00     0.041 A 
ATOM     26  N   UNK d   0     -41.476  18.652  -1.846  0.00  0.00    -0.355 N 
ATOM     27  C   UNK d   0     -42.998  20.157  -2.548  0.00  0.00    -0.022 A 
ATOM     28  C   UNK d   0     -42.506  18.675  -0.985  0.00  0.00     0.042 A 
ATOM     29  H   UNK d   0     -40.576  17.992  -1.792  0.00  0.00     0.166 HD
ATOM     30  C   UNK d   0     -42.738  17.950   0.195  0.00  0.00     0.062 C 
ATOM     31  C   UNK d   0     -43.482  19.612  -1.398  0.00  0.00    -0.013 A 
ATOM     32  C   UNK d   0     -41.828  17.614   1.184  0.00  0.00     0.066 A 
BRANCH   8  33
ATOM     33  C   UNK d   0     -40.323  16.342   4.288  0.00  0.00     0.151 C 
BRANCH  33  34
ATOM     34  C   UNK d   0     -39.938  14.923   4.189  0.00  0.00     0.143 C 
ATOM     35  O   UNK d   0     -38.748  14.592   4.083  0.00  0.00    -0.650 OA
BRANCH  34  36
ATOM     36  O   UNK d   0     -40.915  13.955   4.211  0.00  0.00    -0.776 OA
ATOM     37  H   UNK d   0     -41.873  14.170   4.519  0.00  0.00     0.167 HD
ENDBRANCH  34  36
ENDBRANCH  33  34
ENDBRANCH   8  33
BRANCH  31  38
ATOM     38  C   UNK d   0     -44.787  19.967  -0.724  0.00  0.00     0.151 C 
BRANCH  38  39
ATOM     39  C   UNK d   0     -45.898  19.167  -1.194  0.00  0.00     0.143 C 
ATOM     40  O   UNK d   0     -45.891  17.924  -1.143  0.00  0.00    -0.650 OA
BRANCH  39  41
ATOM     41  O   UNK d   0     -47.023  19.798  -1.723  0.00  0.00    -0.776 OA
ATOM     42  H   UNK d   0     -46.989  20.820  -1.792  0.00  0.00     0.167 HD
ENDBRANCH  39  41
ENDBRANCH  38  39
ENDBRANCH  31  38
BRANCH  27  43
ATOM     43  C   UNK d   0     -43.728  21.213  -3.339  0.00  0.00     0.052 C 
BRANCH  43  44
ATOM     44  C   UNK d   0     -43.240  22.599  -3.067  0.00  0.00     0.115 C 
BRANCH  44  45
ATOM     45  C   UNK d   0     -42.568  23.063  -4.309  0.00  0.00     0.139 C 
ATOM     46  O   UNK d   0     -41.400  23.517  -4.215  0.00  0.00    -0.650 OA
BRANCH  45  47
ATOM     47  O   UNK d   0     -43.168  23.010  -5.548  0.00  0.00    -0.776 OA
ATOM     48  H   UNK d   0     -42.756  22.503  -6.349  0.00  0.00     0.167 HD
ENDBRANCH  45  47
ENDBRANCH  44  45
ENDBRANCH  43  44
ENDBRANCH  27  43
BRANCH  24  49
ATOM     49  C   UNK d   0     -39.083  21.175  -6.352  0.00  0.00     0.052 C 
BRANCH  49  50
ATOM     50  C   UNK d   0     -39.586  20.041  -7.208  0.00  0.00     0.115 C 
BRANCH  50  51
ATOM     51  C   UNK d   0     -40.860  20.235  -7.887  0.00  0.00     0.139 C 
ATOM     52  O   UNK d   0     -41.069  19.842  -9.059  0.00  0.00    -0.650 OA
BRANCH  51  53
ATOM     53  O   UNK d   0     -41.897  20.881  -7.230  0.00  0.00    -0.776 OA
ATOM     54  H   UNK d   0     -42.201  21.771  -7.582  0.00  0.00     0.167 HD
ENDBRANCH  51  53
ENDBRANCH  50  51
ENDBRANCH  49  50
ENDBRANCH  24  49
BRANCH  21  55
ATOM     55  C   UNK d   0     -36.250  21.136  -5.122  0.00  0.00     0.151 C 
BRANCH  55  56
ATOM     56  C   UNK d   0     -35.778  22.409  -4.556  0.00  0.00     0.143 C 
ATOM     57  O   UNK d   0     -34.674  22.529  -3.990  0.00  0.00    -0.650 OA
BRANCH  56  58
ATOM     58  O   UNK d   0     -36.615  23.519  -4.669  0.00  0.00    -0.776 OA
ATOM     59  H   UNK d   0     -36.131  24.409  -4.885  0.00  0.00     0.167 HD
ENDBRANCH  56  58
ENDBRANCH  55  56
ENDBRANCH  21  55
BRANCH  18  60
ATOM     60  C   UNK d   0     -34.676  17.866  -1.167  0.00  0.00     0.151 C 
BRANCH  60  61
ATOM     61  C   UNK d   0     -33.754  18.976  -0.882  0.00  0.00     0.143 C 
ATOM     62  O   UNK d   0     -33.401  19.865  -1.657  0.00  0.00    -0.650 OA
BRANCH  61  63
ATOM     63  O   UNK d   0     -33.231  19.001   0.434  0.00  0.00    -0.776 OA
ATOM     64  H   UNK d   0     -33.240  19.845   0.979  0.00  0.00     0.167 HD
ENDBRANCH  61  63
ENDBRANCH  60  61
ENDBRANCH  18  60
BRANCH  14  65
ATOM     65  C   UNK d   0     -35.658  16.735   1.473  0.00  0.00     0.052 C 
BRANCH  65  66
ATOM     66  C   UNK d   0     -35.480  17.178   2.882  0.00  0.00     0.115 C 
BRANCH  66  67
ATOM     67  C   UNK d   0     -35.177  16.211   3.899  0.00  0.00     0.139 C 
ATOM     68  O   UNK d   0     -34.226  16.467   4.725  0.00  0.00    -0.650 OA
BRANCH  67  69
ATOM     69  O   UNK d   0     -35.799  14.983   4.121  0.00  0.00    -0.776 OA
ATOM     70  H   UNK d   0     -36.606  14.774   3.515  0.00  0.00     0.167 HD
ENDBRANCH  67  69
ENDBRANCH  66  67
ENDBRANCH  65  66
ENDBRANCH  14  65
ENDBRANCH   6   7
ENDBRANCH   5   6
ENDBRANCH   2   5
TORSDOF 28
ENDMDL
MODEL 2
REMARK VINA RESULT:      -7.1      1.486      8.152
REMARK  28 active torsions:
REMARK  status: ('A' for Active; 'I' for Inactive)
REMARK    1  A    between atoms: C_2  and  O_3 
REMARK    2  A    between atoms: C_2  and  C_4 
REMARK    3  A    between atoms: C_4  and  C_5 
REMARK    4  A    between atoms: C_5  and  C_6 
REMARK    5  A    between atoms: C_7  and  C_8 
REMARK    6  A    between atoms: C_8  and  C_9 
REMARK    7  A    between atoms: C_9  and  O_11 
REMARK    8  A    between atoms: C_28  and  C_29 
REMARK    9  A    between atoms: C_29  and  C_30 
REMARK   10  A    between atoms: C_30  and  O_32 
REMARK   11  A    between atoms: C_33  and  C_34 
REMARK   12  A    between atoms: C_34  and  C_35 
REMARK   13  A    between atoms: C_35  and  C_36 
REMARK   14  A    between atoms: C_36  and  O_38 
REMARK   15  A    between atoms: C_39  and  C_40 
REMARK   16  A    between atoms: C_40  and  C_41 
REMARK   17  A    between atoms: C_41  and  C_42 
REMARK   18  A    between atoms: C_42  and  O_44 
REMARK   19  A    between atoms: C_45  and  C_46 
REMARK   20  A    between atoms: C_46  and  C_47 
REMARK   21  A    between atoms: C_47  and  O_49 
REMARK   22  A    between atoms: C_50  and  C_51 
REMARK   23  A    between atoms: C_51  and  C_52 
REMARK   24  A    between atoms: C_52  and  O_54 
REMARK   25  A    between atoms: C_55  and  C_56 
REMARK   26  A    between atoms: C_56  and  C_57 
REMARK   27  A    between atoms: C_57  and  C_58 
REMARK   28  A    between atoms: C_58  and  O_60 
ROOT
ATOM      1  O   UNK d   0     -46.282  20.526   2.970  0.00  0.00    -0.650 OA
ATOM      2  C   UNK d   0     -46.601  19.478   2.366  0.00  0.00     0.139 C 
ENDROOT
BRANCH   2   3
ATOM      3  O   UNK d   0     -46.862  18.338   3.088  0.00  0.00    -0.776 OA
ATOM      4  H   UNK d   0     -46.127  17.654   3.279  0.00  0.00     0.167 HD
ENDBRANCH   2   3
BRANCH   2   5
ATOM      5  C   UNK d   0     -46.694  19.469   0.879  0.00  0.00     0.115 C 
BRANCH   5   6
ATOM      6  C   UNK d   0     -46.000  20.676   0.310  0.00  0.00     0.052 C 
BRANCH   6   7
ATOM      7  C   UNK d   0     -44.748  20.321  -0.455  0.00  0.00    -0.020 A 
ATOM      8  C   UNK d   0     -44.541  20.427  -1.743  0.00  0.00    -0.011 A 
ATOM      9  C   UNK d   0     -43.194  19.956  -2.018  0.00  0.00     0.067 A 
ATOM     10  C   UNK d   0     -42.377  19.832  -3.152  0.00  0.00     0.062 C 
ATOM     11  N   UNK d   0     -42.654  19.577  -0.840  0.00  0.00    -0.248 NA
ATOM     12  C   UNK d   0     -40.995  19.614  -3.181  0.00  0.00     0.041 A 
ATOM     13  N   UNK d   0     -40.212  18.791  -2.458  0.00  0.00    -0.355 N 
ATOM     14  C   UNK d   0     -40.202  20.386  -4.050  0.00  0.00    -0.022 A 
ATOM     15  C   UNK d   0     -38.942  19.026  -2.841  0.00  0.00     0.042 A 
ATOM     16  H   UNK d   0     -40.551  18.044  -1.707  0.00  0.00     0.166 HD
ATOM     17  C   UNK d   0     -37.735  18.442  -2.408  0.00  0.00     0.062 C 
ATOM     18  C   UNK d   0     -38.897  20.020  -3.837  0.00  0.00    -0.013 A 
ATOM     19  C   UNK d   0     -37.319  18.169  -1.130  0.00  0.00     0.067 A 
ATOM     20  N   UNK d   0     -38.231  18.278  -0.160  0.00  0.00    -0.248 NA
ATOM     21  C   UNK d   0     -36.068  17.782  -0.499  0.00  0.00    -0.011 A 
ATOM     22  C   UNK d   0     -37.667  17.991   1.059  0.00  0.00     0.066 A 
ATOM     23  C   UNK d   0     -38.517  18.029   2.155  0.00  0.00     0.062 C 
ATOM     24  C   UNK d   0     -36.278  17.683   0.782  0.00  0.00    -0.020 A 
ATOM     25  C   UNK d   0     -39.904  18.237   2.161  0.00  0.00     0.041 A 
ATOM     26  N   UNK d   0     -40.681  19.066   1.453  0.00  0.00    -0.355 N 
ATOM     27  C   UNK d   0     -40.700  17.459   3.030  0.00  0.00    -0.022 A 
ATOM     28  C   UNK d   0     -41.947  18.840   1.839  0.00  0.00     0.042 A 
ATOM     29  H   UNK d   0     -40.337  19.823   0.706  0.00  0.00     0.166 HD
ATOM     30  C   UNK d   0     -43.156  19.419   1.424  0.00  0.00     0.062 C 
ATOM     31  C   UNK d   0     -41.993  17.833   2.833  0.00  0.00    -0.013 A 
ATOM     32  C   UNK d   0     -43.538  19.772   0.139  0.00  0.00     0.066 A 
BRANCH   8  33
ATOM     33  C   UNK d   0     -45.492  20.926  -2.753  0.00  0.00     0.151 C 
BRANCH  33  34
ATOM     34  C   UNK d   0     -46.578  19.970  -3.037  0.00  0.00     0.143 C 
ATOM     35  O   UNK d   0     -47.752  20.352  -3.137  0.00  0.00    -0.650 OA
BRANCH  34  36
ATOM     36  O   UNK d   0     -46.280  18.636  -3.189  0.00  0.00    -0.776 OA
ATOM     37  H   UNK d   0     -45.461  18.215  -2.729  0.00  0.00     0.167 HD
ENDBRANCH  34  36
ENDBRANCH  33  34
ENDBRANCH   8  33
BRANCH  31  38
ATOM     38  C   UNK d   0     -43.203  17.262   3.534  0.00  0.00     0.151 C 
BRANCH  38  39
ATOM     39  C   UNK d   0     -43.578  18.015   4.711  0.00  0.00     0.143 C 
ATOM     40  O   UNK d   0     -43.079  19.123   4.980  0.00  0.00    -0.650 OA
BRANCH  39  41
ATOM     41  O   UNK d   0     -44.532  17.494   5.585  0.00  0.00    -0.776 OA
ATOM     42  H   UNK d   0     -45.413  18.011   5.669  0.00  0.00     0.167 HD
ENDBRANCH  39  41
ENDBRANCH  38  39
ENDBRANCH  31  38
BRANCH  27  43
ATOM     43  C   UNK d   0     -40.283  16.399   4.019  0.00  0.00     0.052 C 
BRANCH  43  44
ATOM     44  C   UNK d   0     -40.708  15.022   3.624  0.00  0.00     0.115 C 
BRANCH  44  45
ATOM     45  C   UNK d   0     -40.003  14.083   4.535  0.00  0.00     0.139 C 
ATOM     46  O   UNK d   0     -38.767  13.921   4.379  0.00  0.00    -0.650 OA
BRANCH  45  47
ATOM     47  O   UNK d   0     -40.646  13.392   5.540  0.00  0.00    -0.776 OA
ATOM     48  H   UNK d   0     -41.670  13.423   5.674  0.00  0.00     0.167 HD
ENDBRANCH  45  47
ENDBRANCH  44  45
ENDBRANCH  43  44
ENDBRANCH  27  43
BRANCH  24  49
ATOM     49  C   UNK d   0     -35.289  17.276   1.795  0.00  0.00     0.052 C 
BRANCH  49  50
ATOM     50  C   UNK d   0     -35.977  16.632   2.971  0.00  0.00     0.115 C 
BRANCH  50  51
ATOM     51  C   UNK d   0     -35.147  15.861   3.887  0.00  0.00     0.139 C 
ATOM     52  O   UNK d   0     -35.206  14.611   3.964  0.00  0.00    -0.650 OA
BRANCH  51  53
ATOM     53  O   UNK d   0     -34.251  16.516   4.717  0.00  0.00    -0.776 OA
ATOM     54  H   UNK d   0     -33.632  15.960   5.282  0.00  0.00     0.167 HD
ENDBRANCH  51  53
ENDBRANCH  50  51
ENDBRANCH  49  50
ENDBRANCH  24  49
BRANCH  21  55
ATOM     55  C   UNK d   0     -34.795  17.547  -1.242  0.00  0.00     0.151 C 
BRANCH  55  56
ATOM     56  C   UNK d   0     -34.152  18.806  -1.647  0.00  0.00     0.143 C 
ATOM     57  O   UNK d   0     -34.187  19.236  -2.817  0.00  0.00    -0.650 OA
BRANCH  56  58
ATOM     58  O   UNK d   0     -33.480  19.536  -0.668  0.00  0.00    -0.776 OA
ATOM     59  H   UNK d   0     -32.472  19.316  -0.575  0.00  0.00     0.167 HD
ENDBRANCH  56  58
ENDBRANCH  55  56
ENDBRANCH  21  55
BRANCH  18  60
ATOM     60  C   UNK d   0     -37.706  20.607  -4.555  0.00  0.00     0.151 C 
BRANCH  60  61
ATOM     61  C   UNK d   0     -37.250  21.733  -3.727  0.00  0.00     0.143 C 
ATOM     62  O   UNK d   0     -37.728  22.867  -3.688  0.00  0.00    -0.650 OA
BRANCH  61  63
ATOM     63  O   UNK d   0     -36.139  21.457  -2.893  0.00  0.00    -0.776 OA
ATOM     64  H   UNK d   0     -35.732  20.540  -2.860  0.00  0.00     0.167 HD
ENDBRANCH  61  63
ENDBRANCH  60  61
ENDBRANCH  18  60
BRANCH  14  65
ATOM     65  C   UNK d   0     -40.590  21.362  -5.124  0.00  0.00     0.052 C 
BRANCH  65  66
ATOM     66  C   UNK d   0     -41.027  20.699  -6.382  0.00  0.00     0.115 C 
BRANCH  66  67
ATOM     67  C   UNK d   0     -40.104  20.566  -7.474  0.00  0.00     0.139 C 
ATOM     68  O   UNK d   0     -39.281  21.527  -7.703  0.00  0.00    -0.650 OA
BRANCH  67  69
ATOM     69  O   UNK d   0     -39.974  19.493  -8.355  0.00  0.00    -0.776 OA
ATOM     70  H   UNK d   0     -39.059  19.403  -8.820  0.00  0.00     0.167 HD
ENDBRANCH  67  69
ENDBRANCH  66  67
ENDBRANCH  65  66
ENDBRANCH  14  65
ENDBRANCH   6   7
ENDBRANCH   5   6
ENDBRANCH   2   5
TORSDOF 28
ENDMDL
MODEL 3
REMARK VINA RESULT:      -7.0      1.134      1.421
REMARK  28 active torsions:
REMARK  status: ('A' for Active; 'I' for Inactive)
REMARK    1  A    between atoms: C_2  and  O_3 
REMARK    2  A    between atoms: C_2  and  C_4 
REMARK    3  A    between atoms: C_4  and  C_5 
REMARK    4  A    between atoms: C_5  and  C_6 
REMARK    5  A    between atoms: C_7  and  C_8 
REMARK    6  A    between atoms: C_8  and  C_9 
REMARK    7  A    between atoms: C_9  and  O_11 
REMARK    8  A    between atoms: C_28  and  C_29 
REMARK    9  A    between atoms: C_29  and  C_30 
REMARK   10  A    between atoms: C_30  and  O_32 
REMARK   11  A    between atoms: C_33  and  C_34 
REMARK   12  A    between atoms: C_34  and  C_35 
REMARK   13  A    between atoms: C_35  and  C_36 
REMARK   14  A    between atoms: C_36  and  O_38 
REMARK   15  A    between atoms: C_39  and  C_40 
REMARK   16  A    between atoms: C_40  and  C_41 
REMARK   17  A    between atoms: C_41  and  C_42 
REMARK   18  A    between atoms: C_42  and  O_44 
REMARK   19  A    between atoms: C_45  and  C_46 
REMARK   20  A    between atoms: C_46  and  C_47 
REMARK   21  A    between atoms: C_47  and  O_49 
REMARK   22  A    between atoms: C_50  and  C_51 
REMARK   23  A    between atoms: C_51  and  C_52 
REMARK   24  A    between atoms: C_52  and  O_54 
REMARK   25  A    between atoms: C_55  and  C_56 
REMARK   26  A    between atoms: C_56  and  C_57 
REMARK   27  A    between atoms: C_57  and  C_58 
REMARK   28  A    between atoms: C_58  and  O_60 
ROOT
ATOM      1  O   UNK d   0     -43.228  18.791   4.485  0.00  0.00    -0.650 OA
ATOM      2  C   UNK d   0     -43.921  17.754   4.376  0.00  0.00     0.139 C 
ENDROOT
BRANCH   2   3
ATOM      3  O   UNK d   0     -44.605  17.283   5.470  0.00  0.00    -0.776 OA
ATOM      4  H   UNK d   0     -44.978  16.332   5.490  0.00  0.00     0.167 HD
ENDBRANCH   2   3
BRANCH   2   5
ATOM      5  C   UNK d   0     -43.998  17.040   3.070  0.00  0.00     0.115 C 
BRANCH   5   6
ATOM      6  C   UNK d   0     -42.774  16.188   2.872  0.00  0.00     0.052 C 
BRANCH   6   7
ATOM      7  C   UNK d   0     -41.583  16.984   2.393  0.00  0.00    -0.020 A 
ATOM      8  C   UNK d   0     -40.453  17.185   3.020  0.00  0.00    -0.011 A 
ATOM      9  C   UNK d   0     -39.616  18.017   2.172  0.00  0.00     0.067 A 
ATOM     10  C   UNK d   0     -38.322  18.558   2.244  0.00  0.00     0.062 C 
ATOM     11  N   UNK d   0     -40.318  18.282   1.051  0.00  0.00    -0.248 NA
ATOM     12  C   UNK d   0     -37.576  19.111   1.198  0.00  0.00     0.041 A 
ATOM     13  N   UNK d   0     -37.929  19.945   0.202  0.00  0.00    -0.355 N 
ATOM     14  C   UNK d   0     -36.225  18.743   1.057  0.00  0.00    -0.022 A 
ATOM     15  C   UNK d   0     -36.839  20.110  -0.572  0.00  0.00     0.042 A 
ATOM     16  H   UNK d   0     -38.922  20.424   0.059  0.00  0.00     0.166 HD
ATOM     17  C   UNK d   0     -36.655  20.877  -1.740  0.00  0.00     0.062 C 
ATOM     18  C   UNK d   0     -35.751  19.371  -0.068  0.00  0.00    -0.013 A 
ATOM     19  C   UNK d   0     -37.473  20.990  -2.835  0.00  0.00     0.067 A 
ATOM     20  N   UNK d   0     -38.700  20.473  -2.730  0.00  0.00    -0.248 NA
ATOM     21  C   UNK d   0     -37.356  21.544  -4.174  0.00  0.00    -0.011 A 
ATOM     22  C   UNK d   0     -39.393  20.648  -3.903  0.00  0.00     0.066 A 
ATOM     23  C   UNK d   0     -40.702  20.189  -3.920  0.00  0.00     0.062 C 
ATOM     24  C   UNK d   0     -38.481  21.336  -4.795  0.00  0.00    -0.020 A 
ATOM     25  C   UNK d   0     -41.437  19.648  -2.854  0.00  0.00     0.041 A 
ATOM     26  N   UNK d   0     -41.091  18.807  -1.872  0.00  0.00    -0.355 N 
ATOM     27  C   UNK d   0     -42.791  20.021  -2.711  0.00  0.00    -0.022 A 
ATOM     28  C   UNK d   0     -42.178  18.634  -1.104  0.00  0.00     0.042 A 
ATOM     29  H   UNK d   0     -40.094  18.318  -1.737  0.00  0.00     0.166 HD
ATOM     30  C   UNK d   0     -42.377  17.867   0.054  0.00  0.00     0.062 C 
ATOM     31  C   UNK d   0     -43.267  19.385  -1.605  0.00  0.00    -0.013 A 
ATOM     32  C   UNK d   0     -41.511  17.688   1.121  0.00  0.00     0.066 A 
BRANCH   8  33
ATOM     33  C   UNK d   0     -40.076  16.673   4.350  0.00  0.00     0.151 C 
BRANCH  33  34
ATOM     34  C   UNK d   0     -39.693  15.250   4.327  0.00  0.00     0.143 C 
ATOM     35  O   UNK d   0     -38.561  14.901   3.962  0.00  0.00    -0.650 OA
BRANCH  34  36
ATOM     36  O   UNK d   0     -40.607  14.298   4.714  0.00  0.00    -0.776 OA
ATOM     37  H   UNK d   0     -40.394  13.293   4.648  0.00  0.00     0.167 HD
ENDBRANCH  34  36
ENDBRANCH  33  34
ENDBRANCH   8  33
BRANCH  31  38
ATOM     38  C   UNK d   0     -44.668  19.492  -1.049  0.00  0.00     0.151 C 
BRANCH  38  39
ATOM     39  C   UNK d   0     -45.503  18.366  -1.409  0.00  0.00     0.143 C 
ATOM     40  O   UNK d   0     -46.243  17.797  -0.587  0.00  0.00    -0.650 OA
BRANCH  39  41
ATOM     41  O   UNK d   0     -45.488  17.891  -2.720  0.00  0.00    -0.776 OA
ATOM     42  H   UNK d   0     -45.278  16.897  -2.848  0.00  0.00     0.167 HD
ENDBRANCH  39  41
ENDBRANCH  38  39
ENDBRANCH  31  38
BRANCH  27  43
ATOM     43  C   UNK d   0     -43.629  20.937  -3.568  0.00  0.00     0.052 C 
BRANCH  43  44
ATOM     44  C   UNK d   0     -43.666  22.345  -3.067  0.00  0.00     0.115 C 
BRANCH  44  45
ATOM     45  C   UNK d   0     -42.752  23.129  -3.938  0.00  0.00     0.139 C 
ATOM     46  O   UNK d   0     -42.046  24.021  -3.405  0.00  0.00    -0.650 OA
BRANCH  45  47
ATOM     47  O   UNK d   0     -42.647  22.915  -5.295  0.00  0.00    -0.776 OA
ATOM     48  H   UNK d   0     -42.503  21.977  -5.705  0.00  0.00     0.167 HD
ENDBRANCH  45  47
ENDBRANCH  44  45
ENDBRANCH  43  44
ENDBRANCH  27  43
BRANCH  24  49
ATOM     49  C   UNK d   0     -38.810  21.769  -6.164  0.00  0.00     0.052 C 
BRANCH  49  50
ATOM     50  C   UNK d   0     -39.148  20.578  -7.023  0.00  0.00     0.115 C 
BRANCH  50  51
ATOM     51  C   UNK d   0     -40.510  20.490  -7.531  0.00  0.00     0.139 C 
ATOM     52  O   UNK d   0     -41.398  21.323  -7.233  0.00  0.00    -0.650 OA
BRANCH  51  53
ATOM     53  O   UNK d   0     -40.862  19.448  -8.376  0.00  0.00    -0.776 OA
ATOM     54  H   UNK d   0     -41.588  19.609  -9.051  0.00  0.00     0.167 HD
ENDBRANCH  51  53
ENDBRANCH  50  51
ENDBRANCH  49  50
ENDBRANCH  24  49
BRANCH  21  55
ATOM     55  C   UNK d   0     -36.133  22.226  -4.691  0.00  0.00     0.151 C 
BRANCH  55  56
ATOM     56  C   UNK d   0     -34.931  21.389  -4.546  0.00  0.00     0.143 C 
ATOM     57  O   UNK d   0     -33.962  21.718  -3.834  0.00  0.00    -0.650 OA
BRANCH  56  58
ATOM     58  O   UNK d   0     -34.893  20.182  -5.242  0.00  0.00    -0.776 OA
ATOM     59  H   UNK d   0     -35.820  19.763  -5.438  0.00  0.00     0.167 HD
ENDBRANCH  56  58
ENDBRANCH  55  56
ENDBRANCH  21  55
BRANCH  18  60
ATOM     60  C   UNK d   0     -34.345  19.248  -0.599  0.00  0.00     0.151 C 
BRANCH  60  61
ATOM     61  C   UNK d   0     -34.405  18.246  -1.674  0.00  0.00     0.143 C 
ATOM     62  O   UNK d   0     -34.861  17.104  -1.600  0.00  0.00    -0.650 OA
BRANCH  61  63
ATOM     63  O   UNK d   0     -33.877  18.665  -2.919  0.00  0.00    -0.776 OA
ATOM     64  H   UNK d   0     -33.176  18.124  -3.393  0.00  0.00     0.167 HD
ENDBRANCH  61  63
ENDBRANCH  60  61
ENDBRANCH  18  60
BRANCH  14  65
ATOM     65  C   UNK d   0     -35.332  17.930   1.950  0.00  0.00     0.052 C 
BRANCH  65  66
ATOM     66  C   UNK d   0     -35.395  16.472   1.665  0.00  0.00     0.115 C 
BRANCH  66  67
ATOM     67  C   UNK d   0     -34.182  15.706   1.597  0.00  0.00     0.139 C 
ATOM     68  O   UNK d   0     -34.199  14.583   0.971  0.00  0.00    -0.650 OA
BRANCH  67  69
ATOM     69  O   UNK d   0     -32.939  16.028   2.141  0.00  0.00    -0.776 OA
ATOM     70  H   UNK d   0     -32.139  15.967   1.495  0.00  0.00     0.167 HD
ENDBRANCH  67  69
ENDBRANCH  66  67
ENDBRANCH  65  66
ENDBRANCH  14  65
ENDBRANCH   6   7
ENDBRANCH   5   6
ENDBRANCH   2   5
TORSDOF 28
ENDMDL
MODEL 4
REMARK VINA RESULT:      -6.9      1.966      7.783
REMARK  28 active torsions:
REMARK  status: ('A' for Active; 'I' for Inactive)
REMARK    1  A    between atoms: C_2  and  O_3 
REMARK    2  A    between atoms: C_2  and  C_4 
REMARK    3  A    between atoms: C_4  and  C_5 
REMARK    4  A    between atoms: C_5  and  C_6 
REMARK    5  A    between atoms: C_7  and  C_8 
REMARK    6  A    between atoms: C_8  and  C_9 
REMARK    7  A    between atoms: C_9  and  O_11 
REMARK    8  A    between atoms: C_28  and  C_29 
REMARK    9  A    between atoms: C_29  and  C_30 
REMARK   10  A    between atoms: C_30  and  O_32 
REMARK   11  A    between atoms: C_33  and  C_34 
REMARK   12  A    between atoms: C_34  and  C_35 
REMARK   13  A    between atoms: C_35  and  C_36 
REMARK   14  A    between atoms: C_36  and  O_38 
REMARK   15  A    between atoms: C_39  and  C_40 
REMARK   16  A    between atoms: C_40  and  C_41 
REMARK   17  A    between atoms: C_41  and  C_42 
REMARK   18  A    between atoms: C_42  and  O_44 
REMARK   19  A    between atoms: C_45  and  C_46 
REMARK   20  A    between atoms: C_46  and  C_47 
REMARK   21  A    between atoms: C_47  and  O_49 
REMARK   22  A    between atoms: C_50  and  C_51 
REMARK   23  A    between atoms: C_51  and  C_52 
REMARK   24  A    between atoms: C_52  and  O_54 
REMARK   25  A    between atoms: C_55  and  C_56 
REMARK   26  A    between atoms: C_56  and  C_57 
REMARK   27  A    between atoms: C_57  and  C_58 
REMARK   28  A    between atoms: C_58  and  O_60 
ROOT
ATOM      1  O   UNK d   0     -43.889  19.269   4.638  0.00  0.00    -0.650 OA
ATOM      2  C   UNK d   0     -44.340  18.138   4.352  0.00  0.00     0.139 C 
ENDROOT
BRANCH   2   3
ATOM      3  O   UNK d   0     -44.772  17.309   5.360  0.00  0.00    -0.776 OA
ATOM      4  H   UNK d   0     -45.310  17.674   6.148  0.00  0.00     0.167 HD
ENDBRANCH   2   3
BRANCH   2   5
ATOM      5  C   UNK d   0     -44.406  17.697   2.929  0.00  0.00     0.115 C 
BRANCH   5   6
ATOM      6  C   UNK d   0     -44.517  18.891   2.022  0.00  0.00     0.052 C 
BRANCH   6   7
ATOM      7  C   UNK d   0     -43.514  18.858   0.893  0.00  0.00    -0.020 A 
ATOM      8  C   UNK d   0     -43.759  18.881  -0.393  0.00  0.00    -0.011 A 
ATOM      9  C   UNK d   0     -42.484  18.823  -1.089  0.00  0.00     0.067 A 
ATOM     10  C   UNK d   0     -42.060  18.833  -2.427  0.00  0.00     0.062 C 
ATOM     11  N   UNK d   0     -41.517  18.760  -0.150  0.00  0.00    -0.248 NA
ATOM     12  C   UNK d   0     -40.762  19.051  -2.902  0.00  0.00     0.041 A 
ATOM     13  N   UNK d   0     -39.572  18.594  -2.471  0.00  0.00    -0.355 N 
ATOM     14  C   UNK d   0     -40.573  19.930  -3.985  0.00  0.00    -0.022 A 
ATOM     15  C   UNK d   0     -38.631  19.166  -3.246  0.00  0.00     0.042 A 
ATOM     16  H   UNK d   0     -39.400  17.866  -1.647  0.00  0.00     0.166 HD
ATOM     17  C   UNK d   0     -37.228  19.035  -3.227  0.00  0.00     0.062 C 
ATOM     18  C   UNK d   0     -39.221  20.011  -4.206  0.00  0.00    -0.013 A 
ATOM     19  C   UNK d   0     -36.375  19.047  -2.152  0.00  0.00     0.067 A 
ATOM     20  N   UNK d   0     -36.930  18.974  -0.940  0.00  0.00    -0.248 NA
ATOM     21  C   UNK d   0     -34.937  19.136  -1.961  0.00  0.00    -0.011 A 
ATOM     22  C   UNK d   0     -35.959  19.010   0.031  0.00  0.00     0.066 A 
ATOM     23  C   UNK d   0     -36.395  18.904   1.344  0.00  0.00     0.062 C 
ATOM     24  C   UNK d   0     -34.701  19.119  -0.681  0.00  0.00    -0.020 A 
ATOM     25  C   UNK d   0     -37.702  18.673   1.800  0.00  0.00     0.041 A 
ATOM     26  N   UNK d   0     -38.884  19.138   1.380  0.00  0.00    -0.355 N 
ATOM     27  C   UNK d   0     -37.891  17.787   2.883  0.00  0.00    -0.022 A 
ATOM     28  C   UNK d   0     -39.823  18.576   2.157  0.00  0.00     0.042 A 
ATOM     29  H   UNK d   0     -39.054  19.878   0.559  0.00  0.00     0.166 HD
ATOM     30  C   UNK d   0     -41.221  18.704   2.155  0.00  0.00     0.062 C 
ATOM     31  C   UNK d   0     -39.231  17.719   3.115  0.00  0.00    -0.013 A 
ATOM     32  C   UNK d   0     -42.071  18.778   1.063  0.00  0.00     0.066 A 
BRANCH   8  33
ATOM     33  C   UNK d   0     -45.081  18.948  -1.041  0.00  0.00     0.151 C 
BRANCH  33  34
ATOM     34  C   UNK d   0     -45.377  20.281  -1.597  0.00  0.00     0.143 C 
ATOM     35  O   UNK d   0     -45.524  20.443  -2.817  0.00  0.00    -0.650 OA
BRANCH  34  36
ATOM     36  O   UNK d   0     -45.489  21.357  -0.748  0.00  0.00    -0.776 OA
ATOM     37  H   UNK d   0     -44.703  22.004  -0.599  0.00  0.00     0.167 HD
ENDBRANCH  34  36
ENDBRANCH  33  34
ENDBRANCH   8  33
BRANCH  31  38
ATOM     38  C   UNK d   0     -39.911  16.883   4.174  0.00  0.00     0.151 C 
BRANCH  38  39
ATOM     39  C   UNK d   0     -40.434  17.675   5.266  0.00  0.00     0.143 C 
ATOM     40  O   UNK d   0     -39.825  18.657   5.727  0.00  0.00    -0.650 OA
BRANCH  39  41
ATOM     41  O   UNK d   0     -41.664  17.339   5.831  0.00  0.00    -0.776 OA
ATOM     42  H   UNK d   0     -41.810  16.351   6.063  0.00  0.00     0.167 HD
ENDBRANCH  39  41
ENDBRANCH  38  39
ENDBRANCH  31  38
BRANCH  27  43
ATOM     43  C   UNK d   0     -36.869  17.023   3.687  0.00  0.00     0.052 C 
BRANCH  43  44
ATOM     44  C   UNK d   0     -35.792  16.415   2.848  0.00  0.00     0.115 C 
BRANCH  44  45
ATOM     45  C   UNK d   0     -34.848  15.752   3.784  0.00  0.00     0.139 C 
ATOM     46  O   UNK d   0     -34.237  16.470   4.615  0.00  0.00    -0.650 OA
BRANCH  45  47
ATOM     47  O   UNK d   0     -34.622  14.393   3.781  0.00  0.00    -0.776 OA
ATOM     48  H   UNK d   0     -34.301  13.880   2.944  0.00  0.00     0.167 HD
ENDBRANCH  45  47
ENDBRANCH  44  45
ENDBRANCH  43  44
ENDBRANCH  27  43
BRANCH  24  49
ATOM     49  C   UNK d   0     -33.373  19.151  -0.043  0.00  0.00     0.052 C 
BRANCH  49  50
ATOM     50  C   UNK d   0     -33.059  20.542   0.444  0.00  0.00     0.115 C 
BRANCH  50  51
ATOM     51  C   UNK d   0     -32.800  20.705   1.868  0.00  0.00     0.139 C 
ATOM     52  O   UNK d   0     -33.719  20.828   2.713  0.00  0.00    -0.650 OA
BRANCH  51  53
ATOM     53  O   UNK d   0     -31.493  20.731   2.330  0.00  0.00    -0.776 OA
ATOM     54  H   UNK d   0     -31.176  19.968   2.902  0.00  0.00     0.167 HD
ENDBRANCH  51  53
ENDBRANCH  50  51
ENDBRANCH  49  50
ENDBRANCH  24  49
BRANCH  21  55
ATOM     55  C   UNK d   0     -33.950  19.225  -3.077  0.00  0.00     0.151 C 
BRANCH  55  56
ATOM     56  C   UNK d   0     -34.060  20.495  -3.811  0.00  0.00     0.143 C 
ATOM     57  O   UNK d   0     -33.666  21.581  -3.342  0.00  0.00    -0.650 OA
BRANCH  56  58
ATOM     58  O   UNK d   0     -34.632  20.464  -5.082  0.00  0.00    -0.776 OA
ATOM     59  H   UNK d   0     -34.280  19.710  -5.699  0.00  0.00     0.167 HD
ENDBRANCH  56  58
ENDBRANCH  55  56
ENDBRANCH  21  55
BRANCH  18  60
ATOM     60  C   UNK d   0     -38.569  20.854  -5.274  0.00  0.00     0.151 C 
BRANCH  60  61
ATOM     61  C   UNK d   0     -37.849  21.921  -4.563  0.00  0.00     0.143 C 
ATOM     62  O   UNK d   0     -36.758  22.408  -4.863  0.00  0.00    -0.650 OA
BRANCH  61  63
ATOM     63  O   UNK d   0     -38.502  22.426  -3.413  0.00  0.00    -0.776 OA
ATOM     64  H   UNK d   0     -39.208  21.890  -2.941  0.00  0.00     0.167 HD
ENDBRANCH  61  63
ENDBRANCH  60  61
ENDBRANCH  18  60
BRANCH  14  65
ATOM     65  C   UNK d   0     -41.568  20.614  -4.878  0.00  0.00     0.052 C 
BRANCH  65  66
ATOM     66  C   UNK d   0     -41.726  22.061  -4.571  0.00  0.00     0.115 C 
BRANCH  66  67
ATOM     67  C   UNK d   0     -41.995  22.478  -3.224  0.00  0.00     0.139 C 
ATOM     68  O   UNK d   0     -41.070  23.091  -2.575  0.00  0.00    -0.650 OA
BRANCH  67  69
ATOM     69  O   UNK d   0     -43.170  22.301  -2.495  0.00  0.00    -0.776 OA
ATOM     70  H   UNK d   0     -43.067  22.307  -1.470  0.00  0.00     0.167 HD
ENDBRANCH  67  69
ENDBRANCH  66  67
ENDBRANCH  65  66
ENDBRANCH  14  65
ENDBRANCH   6   7
ENDBRANCH   5   6
ENDBRANCH   2   5
TORSDOF 28
ENDMDL
MODEL 5
REMARK VINA RESULT:      -6.9      1.702      8.059
REMARK  28 active torsions:
REMARK  status: ('A' for Active; 'I' for Inactive)
REMARK    1  A    between atoms: C_2  and  O_3 
REMARK    2  A    between atoms: C_2  and  C_4 
REMARK    3  A    between atoms: C_4  and  C_5 
REMARK    4  A    between atoms: C_5  and  C_6 
REMARK    5  A    between atoms: C_7  and  C_8 
REMARK    6  A    between atoms: C_8  and  C_9 
REMARK    7  A    between atoms: C_9  and  O_11 
REMARK    8  A    between atoms: C_28  and  C_29 
REMARK    9  A    between atoms: C_29  and  C_30 
REMARK   10  A    between atoms: C_30  and  O_32 
REMARK   11  A    between atoms: C_33  and  C_34 
REMARK   12  A    between atoms: C_34  and  C_35 
REMARK   13  A    between atoms: C_35  and  C_36 
REMARK   14  A    between atoms: C_36  and  O_38 
REMARK   15  A    between atoms: C_39  and  C_40 
REMARK   16  A    between atoms: C_40  and  C_41 
REMARK   17  A    between atoms: C_41  and  C_42 
REMARK   18  A    between atoms: C_42  and  O_44 
REMARK   19  A    between atoms: C_45  and  C_46 
REMARK   20  A    between atoms: C_46  and  C_47 
REMARK   21  A    between atoms: C_47  and  O_49 
REMARK   22  A    between atoms: C_50  and  C_51 
REMARK   23  A    between atoms: C_51  and  C_52 
REMARK   24  A    between atoms: C_52  and  O_54 
REMARK   25  A    between atoms: C_55  and  C_56 
REMARK   26  A    between atoms: C_56  and  C_57 
REMARK   27  A    between atoms: C_57  and  C_58 
REMARK   28  A    between atoms: C_58  and  O_60 
ROOT
ATOM      1  O   UNK d   0     -44.647  22.372  -4.640  0.00  0.00    -0.650 OA
ATOM      2  C   UNK d   0     -44.612  21.446  -5.481  0.00  0.00     0.139 C 
ENDROOT
BRANCH   2   3
ATOM      3  O   UNK d   0     -45.644  20.540  -5.529  0.00  0.00    -0.776 OA
ATOM      4  H   UNK d   0     -45.831  19.912  -4.744  0.00  0.00     0.167 HD
ENDBRANCH   2   3
BRANCH   2   5
ATOM      5  C   UNK d   0     -43.459  21.330  -6.419  0.00  0.00     0.115 C 
BRANCH   5   6
ATOM      6  C   UNK d   0     -42.348  22.250  -5.990  0.00  0.00     0.052 C 
BRANCH   6   7
ATOM      7  C   UNK d   0     -41.165  21.505  -5.420  0.00  0.00    -0.020 A 
ATOM      8  C   UNK d   0     -40.028  21.239  -6.012  0.00  0.00    -0.011 A 
ATOM      9  C   UNK d   0     -39.202  20.497  -5.076  0.00  0.00     0.067 A 
ATOM     10  C   UNK d   0     -37.909  19.949  -5.079  0.00  0.00     0.062 C 
ATOM     11  N   UNK d   0     -39.916  20.350  -3.940  0.00  0.00    -0.248 NA
ATOM     12  C   UNK d   0     -37.174  19.505  -3.975  0.00  0.00     0.041 A 
ATOM     13  N   UNK d   0     -37.539  18.777  -2.902  0.00  0.00    -0.355 N 
ATOM     14  C   UNK d   0     -35.824  19.883  -3.858  0.00  0.00    -0.022 A 
ATOM     15  C   UNK d   0     -36.458  18.691  -2.104  0.00  0.00     0.042 A 
ATOM     16  H   UNK d   0     -38.536  18.317  -2.721  0.00  0.00     0.166 HD
ATOM     17  C   UNK d   0     -36.287  18.047  -0.863  0.00  0.00     0.062 C 
ATOM     18  C   UNK d   0     -35.363  19.373  -2.671  0.00  0.00    -0.013 A 
ATOM     19  C   UNK d   0     -37.116  18.048   0.230  0.00  0.00     0.067 A 
ATOM     20  N   UNK d   0     -38.340  18.553   0.061  0.00  0.00    -0.248 NA
ATOM     21  C   UNK d   0     -37.013  17.634   1.620  0.00  0.00    -0.011 A 
ATOM     22  C   UNK d   0     -39.045  18.501   1.238  0.00  0.00     0.066 A 
ATOM     23  C   UNK d   0     -40.353  18.962   1.195  0.00  0.00     0.062 C 
ATOM     24  C   UNK d   0     -38.144  17.906   2.205  0.00  0.00    -0.020 A 
ATOM     25  C   UNK d   0     -41.077  19.392   0.073  0.00  0.00     0.041 A 
ATOM     26  N   UNK d   0     -40.718  20.127  -0.987  0.00  0.00    -0.355 N 
ATOM     27  C   UNK d   0     -42.430  19.008  -0.045  0.00  0.00    -0.022 A 
ATOM     28  C   UNK d   0     -41.797  20.222  -1.779  0.00  0.00     0.042 A 
ATOM     29  H   UNK d   0     -39.719  20.598  -1.161  0.00  0.00     0.166 HD
ATOM     30  C   UNK d   0     -41.983  20.868  -3.012  0.00  0.00     0.062 C 
ATOM     31  C   UNK d   0     -42.894  19.528  -1.215  0.00  0.00    -0.013 A 
ATOM     32  C   UNK d   0     -41.106  20.935  -4.083  0.00  0.00     0.066 A 
BRANCH   8  33
ATOM     33  C   UNK d   0     -39.637  21.612  -7.384  0.00  0.00     0.151 C 
BRANCH  33  34
ATOM     34  C   UNK d   0     -39.847  20.521  -8.353  0.00  0.00     0.143 C 
ATOM     35  O   UNK d   0     -40.296  19.425  -7.990  0.00  0.00    -0.650 OA
BRANCH  34  36
ATOM     36  O   UNK d   0     -39.539  20.726  -9.678  0.00  0.00    -0.776 OA
ATOM     37  H   UNK d   0     -39.821  20.052 -10.403  0.00  0.00     0.167 HD
ENDBRANCH  34  36
ENDBRANCH  33  34
ENDBRANCH   8  33
BRANCH  31  38
ATOM     38  C   UNK d   0     -44.289  19.367  -1.771  0.00  0.00     0.151 C 
BRANCH  38  39
ATOM     39  C   UNK d   0     -45.116  20.536  -1.561  0.00  0.00     0.143 C 
ATOM     40  O   UNK d   0     -44.969  21.288  -0.581  0.00  0.00    -0.650 OA
BRANCH  39  41
ATOM     41  O   UNK d   0     -46.117  20.843  -2.482  0.00  0.00    -0.776 OA
ATOM     42  H   UNK d   0     -46.961  21.293  -2.113  0.00  0.00     0.167 HD
ENDBRANCH  39  41
ENDBRANCH  38  39
ENDBRANCH  31  38
BRANCH  27  43
ATOM     43  C   UNK d   0     -43.278  18.186   0.892  0.00  0.00     0.052 C 
BRANCH  43  44
ATOM     44  C   UNK d   0     -43.982  19.005   1.925  0.00  0.00     0.115 C 
BRANCH  44  45
ATOM     45  C   UNK d   0     -43.497  18.529   3.247  0.00  0.00     0.139 C 
ATOM     46  O   UNK d   0     -44.001  17.479   3.719  0.00  0.00    -0.650 OA
BRANCH  45  47
ATOM     47  O   UNK d   0     -42.521  19.184   3.966  0.00  0.00    -0.776 OA
ATOM     48  H   UNK d   0     -42.718  20.013   4.551  0.00  0.00     0.167 HD
ENDBRANCH  45  47
ENDBRANCH  44  45
ENDBRANCH  43  44
ENDBRANCH  27  43
BRANCH  24  49
ATOM     49  C   UNK d   0     -38.487  17.616   3.608  0.00  0.00     0.052 C 
BRANCH  49  50
ATOM     50  C   UNK d   0     -39.113  16.249   3.723  0.00  0.00     0.115 C 
BRANCH  50  51
ATOM     51  C   UNK d   0     -40.568  16.185   3.750  0.00  0.00     0.139 C 
ATOM     52  O   UNK d   0     -41.246  15.782   2.775  0.00  0.00    -0.650 OA
BRANCH  51  53
ATOM     53  O   UNK d   0     -41.251  16.583   4.889  0.00  0.00    -0.776 OA
ATOM     54  H   UNK d   0     -40.863  16.344   5.784  0.00  0.00     0.167 HD
ENDBRANCH  51  53
ENDBRANCH  50  51
ENDBRANCH  49  50
ENDBRANCH  24  49
BRANCH  21  55
ATOM     55  C   UNK d   0     -35.797  17.006   2.216  0.00  0.00     0.151 C 
BRANCH  55  56
ATOM     56  C   UNK d   0     -34.588  17.808   1.974  0.00  0.00     0.143 C 
ATOM     57  O   UNK d   0     -34.424  18.945   2.457  0.00  0.00    -0.650 OA
BRANCH  56  58
ATOM     58  O   UNK d   0     -33.593  17.255   1.169  0.00  0.00    -0.776 OA
ATOM     59  H   UNK d   0     -33.653  16.229   1.043  0.00  0.00     0.167 HD
ENDBRANCH  56  58
ENDBRANCH  55  56
ENDBRANCH  21  55
BRANCH  18  60
ATOM     60  C   UNK d   0     -33.961  19.547  -2.141  0.00  0.00     0.151 C 
BRANCH  60  61
ATOM     61  C   UNK d   0     -34.074  20.460  -0.993  0.00  0.00     0.143 C 
ATOM     62  O   UNK d   0     -34.842  21.416  -0.877  0.00  0.00    -0.650 OA
BRANCH  61  63
ATOM     63  O   UNK d   0     -33.194  20.187   0.082  0.00  0.00    -0.776 OA
ATOM     64  H   UNK d   0     -32.754  20.932   0.593  0.00  0.00     0.167 HD
ENDBRANCH  61  63
ENDBRANCH  60  61
ENDBRANCH  18  60
BRANCH  14  65
ATOM     65  C   UNK d   0     -34.920  20.599  -4.821  0.00  0.00     0.052 C 
BRANCH  65  66
ATOM     66  C   UNK d   0     -35.324  22.011  -5.059  0.00  0.00     0.115 C 
BRANCH  66  67
ATOM     67  C   UNK d   0     -35.597  22.871  -3.942  0.00  0.00     0.139 C 
ATOM     68  O   UNK d   0     -36.807  23.259  -3.748  0.00  0.00    -0.650 OA
BRANCH  67  69
ATOM     69  O   UNK d   0     -34.691  23.362  -3.002  0.00  0.00    -0.776 OA
ATOM     70  H   UNK d   0     -35.053  23.467  -2.044  0.00  0.00     0.167 HD
ENDBRANCH  67  69
ENDBRANCH  66  67
ENDBRANCH  65  66
ENDBRANCH  14  65
ENDBRANCH   6   7
ENDBRANCH   5   6
ENDBRANCH   2   5
TORSDOF 28
ENDMDL
MODEL 6
REMARK VINA RESULT:      -6.8      2.294     11.003
REMARK  28 active torsions:
REMARK  status: ('A' for Active; 'I' for Inactive)
REMARK    1  A    between atoms: C_2  and  O_3 
REMARK    2  A    between atoms: C_2  and  C_4 
REMARK    3  A    between atoms: C_4  and  C_5 
REMARK    4  A    between atoms: C_5  and  C_6 
REMARK    5  A    between atoms: C_7  and  C_8 
REMARK    6  A    between atoms: C_8  and  C_9 
REMARK    7  A    between atoms: C_9  and  O_11 
REMARK    8  A    between atoms: C_28  and  C_29 
REMARK    9  A    between atoms: C_29  and  C_30 
REMARK   10  A    between atoms: C_30  and  O_32 
REMARK   11  A    between atoms: C_33  and  C_34 
REMARK   12  A    between atoms: C_34  and  C_35 
REMARK   13  A    between atoms: C_35  and  C_36 
REMARK   14  A    between atoms: C_36  and  O_38 
REMARK   15  A    between atoms: C_39  and  C_40 
REMARK   16  A    between atoms: C_40  and  C_41 
REMARK   17  A    between atoms: C_41  and  C_42 
REMARK   18  A    between atoms: C_42  and  O_44 
REMARK   19  A    between atoms: C_45  and  C_46 
REMARK   20  A    between atoms: C_46  and  C_47 
REMARK   21  A    between atoms: C_47  and  O_49 
REMARK   22  A    between atoms: C_50  and  C_51 
REMARK   23  A    between atoms: C_51  and  C_52 
REMARK   24  A    between atoms: C_52  and  O_54 
REMARK   25  A    between atoms: C_55  and  C_56 
REMARK   26  A    between atoms: C_56  and  C_57 
REMARK   27  A    between atoms: C_57  and  C_58 
REMARK   28  A    between atoms: C_58  and  O_60 
ROOT
ATOM      1  O   UNK d   0     -39.589  20.519  -9.726  0.00  0.00    -0.650 OA
ATOM      2  C   UNK d   0     -40.371  20.102  -8.842  0.00  0.00     0.139 C 
ENDROOT
BRANCH   2   3
ATOM      3  O   UNK d   0     -41.562  19.527  -9.215  0.00  0.00    -0.776 OA
ATOM      4  H   UNK d   0     -42.032  19.798 -10.081  0.00  0.00     0.167 HD
ENDBRANCH   2   3
BRANCH   2   5
ATOM      5  C   UNK d   0     -40.010  20.231  -7.402  0.00  0.00     0.115 C 
BRANCH   5   6
ATOM      6  C   UNK d   0     -40.534  21.529  -6.851  0.00  0.00     0.052 C 
BRANCH   6   7
ATOM      7  C   UNK d   0     -41.462  21.330  -5.677  0.00  0.00    -0.020 A 
ATOM      8  C   UNK d   0     -42.683  21.779  -5.540  0.00  0.00    -0.011 A 
ATOM      9  C   UNK d   0     -43.175  21.344  -4.243  0.00  0.00     0.067 A 
ATOM     10  C   UNK d   0     -44.371  21.467  -3.520  0.00  0.00     0.062 C 
ATOM     11  N   UNK d   0     -42.184  20.640  -3.655  0.00  0.00    -0.248 NA
ATOM     12  C   UNK d   0     -44.758  20.737  -2.391  0.00  0.00     0.041 A 
ATOM     13  N   UNK d   0     -44.068  20.370  -1.294  0.00  0.00    -0.355 N 
ATOM     14  C   UNK d   0     -46.062  20.212  -2.333  0.00  0.00    -0.022 A 
ATOM     15  C   UNK d   0     -44.899  19.619  -0.546  0.00  0.00     0.042 A 
ATOM     16  H   UNK d   0     -43.022  20.652  -1.044  0.00  0.00     0.166 HD
ATOM     17  C   UNK d   0     -44.689  18.986   0.696  0.00  0.00     0.062 C 
ATOM     18  C   UNK d   0     -46.158  19.497  -1.165  0.00  0.00    -0.013 A 
ATOM     19  C   UNK d   0     -43.613  18.247   1.116  0.00  0.00     0.067 A 
ATOM     20  N   UNK d   0     -42.522  18.275   0.346  0.00  0.00    -0.248 NA
ATOM     21  C   UNK d   0     -43.321  17.371   2.238  0.00  0.00    -0.011 A 
ATOM     22  C   UNK d   0     -41.539  17.480   0.883  0.00  0.00     0.066 A 
ATOM     23  C   UNK d   0     -40.331  17.448   0.200  0.00  0.00     0.062 C 
ATOM     24  C   UNK d   0     -42.107  16.923   2.094  0.00  0.00    -0.020 A 
ATOM     25  C   UNK d   0     -39.959  18.199  -0.925  0.00  0.00     0.041 A 
ATOM     26  N   UNK d   0     -40.639  18.551  -2.023  0.00  0.00    -0.355 N 
ATOM     27  C   UNK d   0     -38.651  18.729  -0.980  0.00  0.00    -0.022 A 
ATOM     28  C   UNK d   0     -39.811  19.293  -2.774  0.00  0.00     0.042 A 
ATOM     29  H   UNK d   0     -41.687  18.258  -2.277  0.00  0.00     0.166 HD
ATOM     30  C   UNK d   0     -40.003  19.921  -4.015  0.00  0.00     0.062 C 
ATOM     31  C   UNK d   0     -38.549  19.423  -2.147  0.00  0.00    -0.013 A 
ATOM     32  C   UNK d   0     -41.127  20.594  -4.467  0.00  0.00     0.066 A 
BRANCH   8  33
ATOM     33  C   UNK d   0     -43.443  22.588  -6.511  0.00  0.00     0.151 C 
BRANCH  33  34
ATOM     34  C   UNK d   0     -44.343  21.777  -7.350  0.00  0.00     0.143 C 
ATOM     35  O   UNK d   0     -45.571  21.815  -7.188  0.00  0.00    -0.650 OA
BRANCH  34  36
ATOM     36  O   UNK d   0     -43.809  20.965  -8.324  0.00  0.00    -0.776 OA
ATOM     37  H   UNK d   0     -44.357  20.691  -9.150  0.00  0.00     0.167 HD
ENDBRANCH  34  36
ENDBRANCH  33  34
ENDBRANCH   8  33
BRANCH  31  38
ATOM     38  C   UNK d   0     -37.333  20.177  -2.632  0.00  0.00     0.151 C 
BRANCH  38  39
ATOM     39  C   UNK d   0     -36.423  19.345  -3.390  0.00  0.00     0.143 C 
ATOM     40  O   UNK d   0     -35.187  19.453  -3.295  0.00  0.00    -0.650 OA
BRANCH  39  41
ATOM     41  O   UNK d   0     -36.935  18.384  -4.261  0.00  0.00    -0.776 OA
ATOM     42  H   UNK d   0     -37.673  17.776  -3.894  0.00  0.00     0.167 HD
ENDBRANCH  39  41
ENDBRANCH  38  39
ENDBRANCH  31  38
BRANCH  27  43
ATOM     43  C   UNK d   0     -37.522  18.600   0.012  0.00  0.00     0.052 C 
BRANCH  43  44
ATOM     44  C   UNK d   0     -36.604  17.459  -0.283  0.00  0.00     0.115 C 
BRANCH  44  45
ATOM     45  C   UNK d   0     -35.221  17.966  -0.090  0.00  0.00     0.139 C 
ATOM     46  O   UNK d   0     -35.060  19.202   0.065  0.00  0.00    -0.650 OA
BRANCH  45  47
ATOM     47  O   UNK d   0     -34.118  17.140  -0.070  0.00  0.00    -0.776 OA
ATOM     48  H   UNK d   0     -33.360  17.199  -0.769  0.00  0.00     0.167 HD
ENDBRANCH  45  47
ENDBRANCH  44  45
ENDBRANCH  43  44
ENDBRANCH  27  43
BRANCH  24  49
ATOM     49  C   UNK d   0     -41.393  16.033   3.026  0.00  0.00     0.052 C 
BRANCH  49  50
ATOM     50  C   UNK d   0     -40.217  16.750   3.637  0.00  0.00     0.115 C 
BRANCH  50  51
ATOM     51  C   UNK d   0     -40.450  17.471   4.882  0.00  0.00     0.139 C 
ATOM     52  O   UNK d   0     -39.767  18.463   5.227  0.00  0.00    -0.650 OA
BRANCH  51  53
ATOM     53  O   UNK d   0     -41.463  17.058   5.734  0.00  0.00    -0.776 OA
ATOM     54  H   UNK d   0     -41.361  16.174   6.200  0.00  0.00     0.167 HD
ENDBRANCH  51  53
ENDBRANCH  50  51
ENDBRANCH  49  50
ENDBRANCH  24  49
BRANCH  21  55
ATOM     55  C   UNK d   0     -44.284  17.077   3.341  0.00  0.00     0.151 C 
BRANCH  55  56
ATOM     56  C   UNK d   0     -44.078  17.957   4.502  0.00  0.00     0.143 C 
ATOM     57  O   UNK d   0     -43.564  19.089   4.408  0.00  0.00    -0.650 OA
BRANCH  56  58
ATOM     58  O   UNK d   0     -44.482  17.488   5.751  0.00  0.00    -0.776 OA
ATOM     59  H   UNK d   0     -45.189  18.074   6.229  0.00  0.00     0.167 HD
ENDBRANCH  56  58
ENDBRANCH  55  56
ENDBRANCH  21  55
BRANCH  18  60
ATOM     60  C   UNK d   0     -47.388  18.756  -0.704  0.00  0.00     0.151 C 
BRANCH  60  61
ATOM     61  C   UNK d   0     -48.048  19.636   0.272  0.00  0.00     0.143 C 
ATOM     62  O   UNK d   0     -48.517  20.756   0.064  0.00  0.00    -0.650 OA
BRANCH  61  63
ATOM     63  O   UNK d   0     -48.141  19.116   1.586  0.00  0.00    -0.776 OA
ATOM     64  H   UNK d   0     -47.977  18.143   1.771  0.00  0.00     0.167 HD
ENDBRANCH  61  63
ENDBRANCH  60  61
ENDBRANCH  18  60
BRANCH  14  65
ATOM     65  C   UNK d   0     -47.242  20.415  -3.241  0.00  0.00     0.052 C 
BRANCH  65  66
ATOM     66  C   UNK d   0     -47.222  19.519  -4.428  0.00  0.00     0.115 C 
BRANCH  66  67
ATOM     67  C   UNK d   0     -47.741  18.184  -4.321  0.00  0.00     0.139 C 
ATOM     68  O   UNK d   0     -48.982  18.030  -4.021  0.00  0.00    -0.650 OA
BRANCH  67  69
ATOM     69  O   UNK d   0     -47.054  16.984  -4.505  0.00  0.00    -0.776 OA
ATOM     70  H   UNK d   0     -47.559  16.132  -4.222  0.00  0.00     0.167 HD
ENDBRANCH  67  69
ENDBRANCH  66  67
ENDBRANCH  65  66
ENDBRANCH  14  65
ENDBRANCH   6   7
ENDBRANCH   5   6
ENDBRANCH   2   5
TORSDOF 28
ENDMDL
MODEL 7
REMARK VINA RESULT:      -6.7      1.872      4.131
REMARK  28 active torsions:
REMARK  status: ('A' for Active; 'I' for Inactive)
REMARK    1  A    between atoms: C_2  and  O_3 
REMARK    2  A    between atoms: C_2  and  C_4 
REMARK    3  A    between atoms: C_4  and  C_5 
REMARK    4  A    between atoms: C_5  and  C_6 
REMARK    5  A    between atoms: C_7  and  C_8 
REMARK    6  A    between atoms: C_8  and  C_9 
REMARK    7  A    between atoms: C_9  and  O_11 
REMARK    8  A    between atoms: C_28  and  C_29 
REMARK    9  A    between atoms: C_29  and  C_30 
REMARK   10  A    between atoms: C_30  and  O_32 
REMARK   11  A    between atoms: C_33  and  C_34 
REMARK   12  A    between atoms: C_34  and  C_35 
REMARK   13  A    between atoms: C_35  and  C_36 
REMARK   14  A    between atoms: C_36  and  O_38 
REMARK   15  A    between atoms: C_39  and  C_40 
REMARK   16  A    between atoms: C_40  and  C_41 
REMARK   17  A    between atoms: C_41  and  C_42 
REMARK   18  A    between atoms: C_42  and  O_44 
REMARK   19  A    between atoms: C_45  and  C_46 
REMARK   20  A    between atoms: C_46  and  C_47 
REMARK   21  A    between atoms: C_47  and  O_49 
REMARK   22  A    between atoms: C_50  and  C_51 
REMARK   23  A    between atoms: C_51  and  C_52 
REMARK   24  A    between atoms: C_52  and  O_54 
REMARK   25  A    between atoms: C_55  and  C_56 
REMARK   26  A    between atoms: C_56  and  C_57 
REMARK   27  A    between atoms: C_57  and  C_58 
REMARK   28  A    between atoms: C_58  and  O_60 
ROOT
ATOM      1  O   UNK d   0     -39.840  12.161   4.659  0.00  0.00    -0.650 OA
ATOM      2  C   UNK d   0     -40.010  13.386   4.845  0.00  0.00     0.139 C 
ENDROOT
BRANCH   2   3
ATOM      3  O   UNK d   0     -40.729  13.808   5.937  0.00  0.00    -0.776 OA
ATOM      4  H   UNK d   0     -40.804  14.801   6.168  0.00  0.00     0.167 HD
ENDBRANCH   2   3
BRANCH   2   5
ATOM      5  C   UNK d   0     -39.436  14.375   3.888  0.00  0.00     0.115 C 
BRANCH   5   6
ATOM      6  C   UNK d   0     -39.809  15.773   4.303  0.00  0.00     0.052 C 
BRANCH   6   7
ATOM      7  C   UNK d   0     -39.309  16.819   3.335  0.00  0.00    -0.020 A 
ATOM      8  C   UNK d   0     -38.146  17.418   3.338  0.00  0.00    -0.011 A 
ATOM      9  C   UNK d   0     -38.122  18.350   2.224  0.00  0.00     0.067 A 
ATOM     10  C   UNK d   0     -37.196  19.251   1.677  0.00  0.00     0.062 C 
ATOM     11  N   UNK d   0     -39.315  18.257   1.599  0.00  0.00    -0.248 NA
ATOM     12  C   UNK d   0     -37.253  19.868   0.422  0.00  0.00     0.041 A 
ATOM     13  N   UNK d   0     -38.279  20.434  -0.242  0.00  0.00    -0.355 N 
ATOM     14  C   UNK d   0     -36.094  19.899  -0.374  0.00  0.00    -0.022 A 
ATOM     15  C   UNK d   0     -37.802  20.816  -1.442  0.00  0.00     0.042 A 
ATOM     16  H   UNK d   0     -39.314  20.578   0.138  0.00  0.00     0.166 HD
ATOM     17  C   UNK d   0     -38.447  21.456  -2.519  0.00  0.00     0.062 C 
ATOM     18  C   UNK d   0     -36.436  20.497  -1.562  0.00  0.00    -0.013 A 
ATOM     19  C   UNK d   0     -39.674  21.189  -3.071  0.00  0.00     0.067 A 
ATOM     20  N   UNK d   0     -40.469  20.351  -2.401  0.00  0.00    -0.248 NA
ATOM     21  C   UNK d   0     -40.387  21.585  -4.274  0.00  0.00    -0.011 A 
ATOM     22  C   UNK d   0     -41.650  20.170  -3.079  0.00  0.00     0.066 A 
ATOM     23  C   UNK d   0     -42.589  19.348  -2.473  0.00  0.00     0.062 C 
ATOM     24  C   UNK d   0     -41.541  20.982  -4.275  0.00  0.00    -0.020 A 
ATOM     25  C   UNK d   0     -42.518  18.748  -1.206  0.00  0.00     0.041 A 
ATOM     26  N   UNK d   0     -41.502  18.173  -0.552  0.00  0.00    -0.355 N 
ATOM     27  C   UNK d   0     -43.680  18.722  -0.406  0.00  0.00    -0.022 A 
ATOM     28  C   UNK d   0     -41.976  17.783   0.641  0.00  0.00     0.042 A 
ATOM     29  H   UNK d   0     -40.464  18.019  -0.939  0.00  0.00     0.166 HD
ATOM     30  C   UNK d   0     -41.349  17.138   1.718  0.00  0.00     0.062 C 
ATOM     31  C   UNK d   0     -43.347  18.114   0.765  0.00  0.00    -0.013 A 
ATOM     32  C   UNK d   0     -40.074  17.353   2.219  0.00  0.00     0.066 A 
BRANCH   8  33
ATOM     33  C   UNK d   0     -37.044  17.205   4.295  0.00  0.00     0.151 C 
BRANCH  33  34
ATOM     34  C   UNK d   0     -35.907  16.477   3.703  0.00  0.00     0.143 C 
ATOM     35  O   UNK d   0     -35.884  15.238   3.687  0.00  0.00    -0.650 OA
BRANCH  34  36
ATOM     36  O   UNK d   0     -34.858  17.185   3.162  0.00  0.00    -0.776 OA
ATOM     37  H   UNK d   0     -34.221  16.756   2.478  0.00  0.00     0.167 HD
ENDBRANCH  34  36
ENDBRANCH  33  34
ENDBRANCH   8  33
BRANCH  31  38
ATOM     38  C   UNK d   0     -44.268  17.871   1.938  0.00  0.00     0.151 C 
BRANCH  38  39
ATOM     39  C   UNK d   0     -44.241  18.948   2.905  0.00  0.00     0.143 C 
ATOM     40  O   UNK d   0     -43.456  18.956   3.870  0.00  0.00    -0.650 OA
BRANCH  39  41
ATOM     41  O   UNK d   0     -45.120  20.021   2.762  0.00  0.00    -0.776 OA
ATOM     42  H   UNK d   0     -45.868  19.915   2.070  0.00  0.00     0.167 HD
ENDBRANCH  39  41
ENDBRANCH  38  39
ENDBRANCH  31  38
BRANCH  27  43
ATOM     43  C   UNK d   0     -45.064  19.240  -0.708  0.00  0.00     0.052 C 
BRANCH  43  44
ATOM     44  C   UNK d   0     -45.949  18.222  -1.352  0.00  0.00     0.115 C 
BRANCH  44  45
ATOM     45  C   UNK d   0     -46.833  18.961  -2.290  0.00  0.00     0.139 C 
ATOM     46  O   UNK d   0     -47.702  19.727  -1.805  0.00  0.00    -0.650 OA
BRANCH  45  47
ATOM     47  O   UNK d   0     -46.734  18.843  -3.660  0.00  0.00    -0.776 OA
ATOM     48  H   UNK d   0     -47.356  19.348  -4.312  0.00  0.00     0.167 HD
ENDBRANCH  45  47
ENDBRANCH  44  45
ENDBRANCH  43  44
ENDBRANCH  27  43
BRANCH  24  49
ATOM     49  C   UNK d   0     -42.597  21.130  -5.291  0.00  0.00     0.052 C 
BRANCH  49  50
ATOM     50  C   UNK d   0     -43.648  22.101  -4.818  0.00  0.00     0.115 C 
BRANCH  50  51
ATOM     51  C   UNK d   0     -44.999  21.586  -4.641  0.00  0.00     0.139 C 
ATOM     52  O   UNK d   0     -45.680  21.811  -3.613  0.00  0.00    -0.650 OA
BRANCH  51  53
ATOM     53  O   UNK d   0     -45.573  20.810  -5.637  0.00  0.00    -0.776 OA
ATOM     54  H   UNK d   0     -45.240  19.870  -5.758  0.00  0.00     0.167 HD
ENDBRANCH  51  53
ENDBRANCH  50  51
ENDBRANCH  49  50
ENDBRANCH  24  49
BRANCH  21  55
ATOM     55  C   UNK d   0     -39.842  22.529  -5.294  0.00  0.00     0.151 C 
BRANCH  55  56
ATOM     56  C   UNK d   0     -39.187  21.821  -6.405  0.00  0.00     0.143 C 
ATOM     57  O   UNK d   0     -39.237  22.223  -7.584  0.00  0.00    -0.650 OA
BRANCH  56  58
ATOM     58  O   UNK d   0     -38.485  20.655  -6.107  0.00  0.00    -0.776 OA
ATOM     59  H   UNK d   0     -38.134  20.134  -6.932  0.00  0.00     0.167 HD
ENDBRANCH  56  58
ENDBRANCH  55  56
ENDBRANCH  21  55
BRANCH  18  60
ATOM     60  C   UNK d   0     -35.493  20.729  -2.716  0.00  0.00     0.151 C 
BRANCH  60  61
ATOM     61  C   UNK d   0     -35.873  19.754  -3.750  0.00  0.00     0.143 C 
ATOM     62  O   UNK d   0     -36.347  18.632  -3.574  0.00  0.00    -0.650 OA
BRANCH  61  63
ATOM     63  O   UNK d   0     -35.660  20.178  -5.084  0.00  0.00    -0.776 OA
ATOM     64  H   UNK d   0     -35.750  21.145  -5.341  0.00  0.00     0.167 HD
ENDBRANCH  61  63
ENDBRANCH  60  61
ENDBRANCH  18  60
BRANCH  14  65
ATOM     65  C   UNK d   0     -34.679  19.499  -0.063  0.00  0.00     0.052 C 
BRANCH  65  66
ATOM     66  C   UNK d   0     -34.252  18.267  -0.779  0.00  0.00     0.115 C 
BRANCH  66  67
ATOM     67  C   UNK d   0     -34.732  16.987  -0.340  0.00  0.00     0.139 C 
ATOM     68  O   UNK d   0     -34.045  16.340   0.534  0.00  0.00    -0.650 OA
BRANCH  67  69
ATOM     69  O   UNK d   0     -35.888  16.323  -0.749  0.00  0.00    -0.776 OA
ATOM     70  H   UNK d   0     -36.556  16.084  -0.002  0.00  0.00     0.167 HD
ENDBRANCH  67  69
ENDBRANCH  66  67
ENDBRANCH  65  66
ENDBRANCH  14  65
ENDBRANCH   6   7
ENDBRANCH   5   6
ENDBRANCH   2   5
TORSDOF 28
ENDMDL
MODEL 8
REMARK VINA RESULT:      -6.7      1.375      7.318
REMARK  28 active torsions:
REMARK  status: ('A' for Active; 'I' for Inactive)
REMARK    1  A    between atoms: C_2  and  O_3 
REMARK    2  A    between atoms: C_2  and  C_4 
REMARK    3  A    between atoms: C_4  and  C_5 
REMARK    4  A    between atoms: C_5  and  C_6 
REMARK    5  A    between atoms: C_7  and  C_8 
REMARK    6  A    between atoms: C_8  and  C_9 
REMARK    7  A    between atoms: C_9  and  O_11 
REMARK    8  A    between atoms: C_28  and  C_29 
REMARK    9  A    between atoms: C_29  and  C_30 
REMARK   10  A    between atoms: C_30  and  O_32 
REMARK   11  A    between atoms: C_33  and  C_34 
REMARK   12  A    between atoms: C_34  and  C_35 
REMARK   13  A    between atoms: C_35  and  C_36 
REMARK   14  A    between atoms: C_36  and  O_38 
REMARK   15  A    between atoms: C_39  and  C_40 
REMARK   16  A    between atoms: C_40  and  C_41 
REMARK   17  A    between atoms: C_41  and  C_42 
REMARK   18  A    between atoms: C_42  and  O_44 
REMARK   19  A    between atoms: C_45  and  C_46 
REMARK   20  A    between atoms: C_46  and  C_47 
REMARK   21  A    between atoms: C_47  and  O_49 
REMARK   22  A    between atoms: C_50  and  C_51 
REMARK   23  A    between atoms: C_51  and  C_52 
REMARK   24  A    between atoms: C_52  and  O_54 
REMARK   25  A    between atoms: C_55  and  C_56 
REMARK   26  A    between atoms: C_56  and  C_57 
REMARK   27  A    between atoms: C_57  and  C_58 
REMARK   28  A    between atoms: C_58  and  O_60 
ROOT
ATOM      1  O   UNK d   0     -34.579  17.474   3.084  0.00  0.00    -0.650 OA
ATOM      2  C   UNK d   0     -35.203  16.430   2.790  0.00  0.00     0.139 C 
ENDROOT
BRANCH   2   3
ATOM      3  O   UNK d   0     -34.737  15.631   1.774  0.00  0.00    -0.776 OA
ATOM      4  H   UNK d   0     -33.918  15.034   1.905  0.00  0.00     0.167 HD
ENDBRANCH   2   3
BRANCH   2   5
ATOM      5  C   UNK d   0     -36.439  16.062   3.537  0.00  0.00     0.115 C 
BRANCH   5   6
ATOM      6  C   UNK d   0     -37.238  17.296   3.857  0.00  0.00     0.052 C 
BRANCH   6   7
ATOM      7  C   UNK d   0     -38.449  17.450   2.968  0.00  0.00    -0.020 A 
ATOM      8  C   UNK d   0     -39.670  17.045   3.206  0.00  0.00    -0.011 A 
ATOM      9  C   UNK d   0     -40.490  17.408   2.062  0.00  0.00     0.067 A 
ATOM     10  C   UNK d   0     -41.842  17.284   1.705  0.00  0.00     0.062 C 
ATOM     11  N   UNK d   0     -39.685  18.025   1.172  0.00  0.00    -0.248 NA
ATOM     12  C   UNK d   0     -42.509  17.948   0.670  0.00  0.00     0.041 A 
ATOM     13  N   UNK d   0     -42.140  18.206  -0.600  0.00  0.00    -0.355 N 
ATOM     14  C   UNK d   0     -43.767  18.522   0.928  0.00  0.00    -0.022 A 
ATOM     15  C   UNK d   0     -43.128  18.937  -1.150  0.00  0.00     0.042 A 
ATOM     16  H   UNK d   0     -41.209  17.863  -1.102  0.00  0.00     0.166 HD
ATOM     17  C   UNK d   0     -43.255  19.470  -2.448  0.00  0.00     0.062 C 
ATOM     18  C   UNK d   0     -44.165  19.156  -0.223  0.00  0.00    -0.013 A 
ATOM     19  C   UNK d   0     -42.320  20.131  -3.204  0.00  0.00     0.067 A 
ATOM     20  N   UNK d   0     -41.061  20.111  -2.761  0.00  0.00    -0.248 NA
ATOM     21  C   UNK d   0     -42.330  20.912  -4.430  0.00  0.00    -0.011 A 
ATOM     22  C   UNK d   0     -40.246  20.823  -3.608  0.00  0.00     0.066 A 
ATOM     23  C   UNK d   0     -38.898  20.853  -3.286  0.00  0.00     0.062 C 
ATOM     24  C   UNK d   0     -41.115  21.317  -4.659  0.00  0.00    -0.020 A 
ATOM     25  C   UNK d   0     -38.246  20.169  -2.248  0.00  0.00     0.041 A 
ATOM     26  N   UNK d   0     -38.605  19.925  -0.982  0.00  0.00    -0.355 N 
ATOM     27  C   UNK d   0     -36.985  19.588  -2.510  0.00  0.00    -0.022 A 
ATOM     28  C   UNK d   0     -37.617  19.204  -0.428  0.00  0.00     0.042 A 
ATOM     29  H   UNK d   0     -39.536  20.280  -0.476  0.00  0.00     0.166 HD
ATOM     30  C   UNK d   0     -37.474  18.674   0.864  0.00  0.00     0.062 C 
ATOM     31  C   UNK d   0     -36.581  18.975  -1.364  0.00  0.00    -0.013 A 
ATOM     32  C   UNK d   0     -38.444  18.083   1.658  0.00  0.00     0.066 A 
BRANCH   8  33
ATOM     33  C   UNK d   0     -40.150  16.340   4.409  0.00  0.00     0.151 C 
BRANCH  33  34
ATOM     34  C   UNK d   0     -40.193  14.877   4.234  0.00  0.00     0.143 C 
ATOM     35  O   UNK d   0     -39.186  14.182   4.432  0.00  0.00    -0.650 OA
BRANCH  34  36
ATOM     36  O   UNK d   0     -41.368  14.277   3.843  0.00  0.00    -0.776 OA
ATOM     37  H   UNK d   0     -41.667  13.378   4.243  0.00  0.00     0.167 HD
ENDBRANCH  34  36
ENDBRANCH  33  34
ENDBRANCH   8  33
BRANCH  31  38
ATOM     38  C   UNK d   0     -35.295  18.207  -1.171  0.00  0.00     0.151 C 
BRANCH  38  39
ATOM     39  C   UNK d   0     -34.313  18.940  -0.399  0.00  0.00     0.143 C 
ATOM     40  O   UNK d   0     -34.154  20.167  -0.520  0.00  0.00    -0.650 OA
BRANCH  39  41
ATOM     41  O   UNK d   0     -33.511  18.258   0.515  0.00  0.00    -0.776 OA
ATOM     42  H   UNK d   0     -33.250  17.297   0.274  0.00  0.00     0.167 HD
ENDBRANCH  39  41
ENDBRANCH  38  39
ENDBRANCH  31  38
BRANCH  27  43
ATOM     43  C   UNK d   0     -36.171  19.598  -3.779  0.00  0.00     0.052 C 
BRANCH  43  44
ATOM     44  C   UNK d   0     -35.442  20.883  -4.004  0.00  0.00     0.115 C 
BRANCH  44  45
ATOM     45  C   UNK d   0     -33.992  20.574  -3.895  0.00  0.00     0.139 C 
ATOM     46  O   UNK d   0     -33.199  21.523  -3.680  0.00  0.00    -0.650 OA
BRANCH  45  47
ATOM     47  O   UNK d   0     -33.490  19.296  -4.014  0.00  0.00    -0.776 OA
ATOM     48  H   UNK d   0     -34.092  18.467  -4.146  0.00  0.00     0.167 HD
ENDBRANCH  45  47
ENDBRANCH  44  45
ENDBRANCH  43  44
ENDBRANCH  27  43
BRANCH  24  49
ATOM     49  C   UNK d   0     -40.666  22.106  -5.818  0.00  0.00     0.052 C 
BRANCH  49  50
ATOM     50  C   UNK d   0     -39.774  21.276  -6.705  0.00  0.00     0.115 C 
BRANCH  50  51
ATOM     51  C   UNK d   0     -40.425  20.381  -7.652  0.00  0.00     0.139 C 
ATOM     52  O   UNK d   0     -39.858  19.366  -8.122  0.00  0.00    -0.650 OA
BRANCH  51  53
ATOM     53  O   UNK d   0     -41.722  20.644  -8.065  0.00  0.00    -0.776 OA
ATOM     54  H   UNK d   0     -42.171  19.981  -8.672  0.00  0.00     0.167 HD
ENDBRANCH  51  53
ENDBRANCH  50  51
ENDBRANCH  49  50
ENDBRANCH  24  49
BRANCH  21  55
ATOM     55  C   UNK d   0     -43.553  21.167  -5.248  0.00  0.00     0.151 C 
BRANCH  55  56
ATOM     56  C   UNK d   0     -44.419  22.189  -4.640  0.00  0.00     0.143 C 
ATOM     57  O   UNK d   0     -45.454  21.906  -4.005  0.00  0.00    -0.650 OA
BRANCH  56  58
ATOM     58  O   UNK d   0     -44.051  23.525  -4.791  0.00  0.00    -0.776 OA
ATOM     59  H   UNK d   0     -43.875  23.821  -5.768  0.00  0.00     0.167 HD
ENDBRANCH  56  58
ENDBRANCH  55  56
ENDBRANCH  21  55
BRANCH  18  60
ATOM     60  C   UNK d   0     -45.459  19.914  -0.388  0.00  0.00     0.151 C 
BRANCH  60  61
ATOM     61  C   UNK d   0     -46.508  18.895  -0.536  0.00  0.00     0.143 C 
ATOM     62  O   UNK d   0     -47.590  18.852   0.052  0.00  0.00    -0.650 OA
BRANCH  61  63
ATOM     63  O   UNK d   0     -46.220  17.862  -1.460  0.00  0.00    -0.776 OA
ATOM     64  H   UNK d   0     -45.936  16.950  -1.146  0.00  0.00     0.167 HD
ENDBRANCH  61  63
ENDBRANCH  60  61
ENDBRANCH  18  60
BRANCH  14  65
ATOM     65  C   UNK d   0     -44.655  18.435   2.137  0.00  0.00     0.052 C 
BRANCH  65  66
ATOM     66  C   UNK d   0     -44.258  19.375   3.219  0.00  0.00     0.115 C 
BRANCH  66  67
ATOM     67  C   UNK d   0     -43.700  18.862   4.439  0.00  0.00     0.139 C 
ATOM     68  O   UNK d   0     -43.277  19.697   5.319  0.00  0.00    -0.650 OA
BRANCH  67  69
ATOM     69  O   UNK d   0     -43.550  17.527   4.812  0.00  0.00    -0.776 OA
ATOM     70  H   UNK d   0     -43.582  16.840   4.045  0.00  0.00     0.167 HD
ENDBRANCH  67  69
ENDBRANCH  66  67
ENDBRANCH  65  66
ENDBRANCH  14  65
ENDBRANCH   6   7
ENDBRANCH   5   6
ENDBRANCH   2   5
TORSDOF 28
ENDMDL
MODEL 9
REMARK VINA RESULT:      -6.7      1.700      7.331
REMARK  28 active torsions:
REMARK  status: ('A' for Active; 'I' for Inactive)
REMARK    1  A    between atoms: C_2  and  O_3 
REMARK    2  A    between atoms: C_2  and  C_4 
REMARK    3  A    between atoms: C_4  and  C_5 
REMARK    4  A    between atoms: C_5  and  C_6 
REMARK    5  A    between atoms: C_7  and  C_8 
REMARK    6  A    between atoms: C_8  and  C_9 
REMARK    7  A    between atoms: C_9  and  O_11 
REMARK    8  A    between atoms: C_28  and  C_29 
REMARK    9  A    between atoms: C_29  and  C_30 
REMARK   10  A    between atoms: C_30  and  O_32 
REMARK   11  A    between atoms: C_33  and  C_34 
REMARK   12  A    between atoms: C_34  and  C_35 
REMARK   13  A    between atoms: C_35  and  C_36 
REMARK   14  A    between atoms: C_36  and  O_38 
REMARK   15  A    between atoms: C_39  and  C_40 
REMARK   16  A    between atoms: C_40  and  C_41 
REMARK   17  A    between atoms: C_41  and  C_42 
REMARK   18  A    between atoms: C_42  and  O_44 
REMARK   19  A    between atoms: C_45  and  C_46 
REMARK   20  A    between atoms: C_46  and  C_47 
REMARK   21  A    between atoms: C_47  and  O_49 
REMARK   22  A    between atoms: C_50  and  C_51 
REMARK   23  A    between atoms: C_51  and  C_52 
REMARK   24  A    between atoms: C_52  and  O_54 
REMARK   25  A    between atoms: C_55  and  C_56 
REMARK   26  A    between atoms: C_56  and  C_57 
REMARK   27  A    between atoms: C_57  and  C_58 
REMARK   28  A    between atoms: C_58  and  O_60 
ROOT
ATOM      1  O   UNK d   0     -44.031  22.177  -5.041  0.00  0.00    -0.650 OA
ATOM      2  C   UNK d   0     -45.012  21.456  -4.752  0.00  0.00     0.139 C 
ENDROOT
BRANCH   2   3
ATOM      3  O   UNK d   0     -45.591  20.683  -5.729  0.00  0.00    -0.776 OA
ATOM      4  H   UNK d   0     -45.024  20.234  -6.451  0.00  0.00     0.167 HD
ENDBRANCH   2   3
BRANCH   2   5
ATOM      5  C   UNK d   0     -45.544  21.440  -3.360  0.00  0.00     0.115 C 
BRANCH   5   6
ATOM      6  C   UNK d   0     -45.528  20.037  -2.816  0.00  0.00     0.052 C 
BRANCH   6   7
ATOM      7  C   UNK d   0     -44.559  19.869  -1.670  0.00  0.00    -0.020 A 
ATOM      8  C   UNK d   0     -44.818  19.938  -0.389  0.00  0.00    -0.011 A 
ATOM      9  C   UNK d   0     -43.573  19.720   0.329  0.00  0.00     0.067 A 
ATOM     10  C   UNK d   0     -43.180  19.648   1.674  0.00  0.00     0.062 C 
ATOM     11  N   UNK d   0     -42.606  19.532  -0.594  0.00  0.00    -0.248 NA
ATOM     12  C   UNK d   0     -41.973  19.150   2.178  0.00  0.00     0.041 A 
ATOM     13  N   UNK d   0     -40.704  19.309   1.758  0.00  0.00    -0.355 N 
ATOM     14  C   UNK d   0     -42.005  18.281   3.284  0.00  0.00    -0.022 A 
ATOM     15  C   UNK d   0     -39.930  18.556   2.563  0.00  0.00     0.042 A 
ATOM     16  H   UNK d   0     -40.359  19.955   0.921  0.00  0.00     0.166 HD
ATOM     17  C   UNK d   0     -38.535  18.360   2.567  0.00  0.00     0.062 C 
ATOM     18  C   UNK d   0     -40.711  17.897   3.532  0.00  0.00    -0.013 A 
ATOM     19  C   UNK d   0     -37.695  18.123   1.509  0.00  0.00     0.067 A 
ATOM     20  N   UNK d   0     -38.202  18.289   0.285  0.00  0.00    -0.248 NA
ATOM     21  C   UNK d   0     -36.314  17.700   1.346  0.00  0.00    -0.011 A 
ATOM     22  C   UNK d   0     -37.254  18.003  -0.667  0.00  0.00     0.066 A 
ATOM     23  C   UNK d   0     -37.638  18.172  -1.989  0.00  0.00     0.062 C 
ATOM     24  C   UNK d   0     -36.064  17.628   0.070  0.00  0.00    -0.020 A 
ATOM     25  C   UNK d   0     -38.850  18.686  -2.475  0.00  0.00     0.041 A 
ATOM     26  N   UNK d   0     -40.113  18.516  -2.066  0.00  0.00    -0.355 N 
ATOM     27  C   UNK d   0     -38.817  19.561  -3.582  0.00  0.00    -0.022 A 
ATOM     28  C   UNK d   0     -40.887  19.259  -2.873  0.00  0.00     0.042 A 
ATOM     29  H   UNK d   0     -40.459  17.858  -1.231  0.00  0.00     0.166 HD
ATOM     30  C   UNK d   0     -42.277  19.456  -2.894  0.00  0.00     0.062 C 
ATOM     31  C   UNK d   0     -40.101  19.929  -3.840  0.00  0.00    -0.013 A 
ATOM     32  C   UNK d   0     -43.135  19.610  -1.816  0.00  0.00     0.066 A 
BRANCH   8  33
ATOM     33  C   UNK d   0     -46.129  20.195   0.236  0.00  0.00     0.151 C 
BRANCH  33  34
ATOM     34  C   UNK d   0     -46.726  18.984   0.827  0.00  0.00     0.143 C 
ATOM     35  O   UNK d   0     -47.224  18.104   0.110  0.00  0.00    -0.650 OA
BRANCH  34  36
ATOM     36  O   UNK d   0     -46.731  18.832   2.194  0.00  0.00    -0.776 OA
ATOM     37  H   UNK d   0     -47.113  17.985   2.636  0.00  0.00     0.167 HD
ENDBRANCH  34  36
ENDBRANCH  33  34
ENDBRANCH   8  33
BRANCH  31  38
ATOM     38  C   UNK d   0     -40.557  20.871  -4.930  0.00  0.00     0.151 C 
BRANCH  38  39
ATOM     39  C   UNK d   0     -40.667  22.242  -4.478  0.00  0.00     0.143 C 
ATOM     40  O   UNK d   0     -40.225  22.618  -3.378  0.00  0.00    -0.650 OA
BRANCH  39  41
ATOM     41  O   UNK d   0     -41.289  23.186  -5.295  0.00  0.00    -0.776 OA
ATOM     42  H   UNK d   0     -42.199  23.539  -4.982  0.00  0.00     0.167 HD
ENDBRANCH  39  41
ENDBRANCH  38  39
ENDBRANCH  31  38
BRANCH  27  43
ATOM     43  C   UNK d   0     -37.636  20.047  -4.384  0.00  0.00     0.052 C 
BRANCH  43  44
ATOM     44  C   UNK d   0     -37.029  21.301  -3.843  0.00  0.00     0.115 C 
BRANCH  44  45
ATOM     45  C   UNK d   0     -35.668  21.402  -4.431  0.00  0.00     0.139 C 
ATOM     46  O   UNK d   0     -35.019  22.461  -4.243  0.00  0.00    -0.650 OA
BRANCH  45  47
ATOM     47  O   UNK d   0     -35.092  20.385  -5.163  0.00  0.00    -0.776 OA
ATOM     48  H   UNK d   0     -34.315  19.808  -4.805  0.00  0.00     0.167 HD
ENDBRANCH  45  47
ENDBRANCH  44  45
ENDBRANCH  43  44
ENDBRANCH  27  43
BRANCH  24  49
ATOM     49  C   UNK d   0     -34.772  17.273  -0.542  0.00  0.00     0.052 C 
BRANCH  49  50
ATOM     50  C   UNK d   0     -33.956  18.514  -0.801  0.00  0.00     0.115 C 
BRANCH  50  51
ATOM     51  C   UNK d   0     -33.949  19.033  -2.162  0.00  0.00     0.139 C 
ATOM     52  O   UNK d   0     -34.276  18.338  -3.153  0.00  0.00    -0.650 OA
BRANCH  51  53
ATOM     53  O   UNK d   0     -33.566  20.345  -2.395  0.00  0.00    -0.776 OA
ATOM     54  H   UNK d   0     -32.679  20.510  -2.837  0.00  0.00     0.167 HD
ENDBRANCH  51  53
ENDBRANCH  50  51
ENDBRANCH  49  50
ENDBRANCH  24  49
BRANCH  21  55
ATOM     55  C   UNK d   0     -35.388  17.416   2.482  0.00  0.00     0.151 C 
BRANCH  55  56
ATOM     56  C   UNK d   0     -35.382  15.991   2.845  0.00  0.00     0.143 C 
ATOM     57  O   UNK d   0     -34.572  15.175   2.363  0.00  0.00    -0.650 OA
BRANCH  56  58
ATOM     58  O   UNK d   0     -36.328  15.553   3.770  0.00  0.00    -0.776 OA
ATOM     59  H   UNK d   0     -37.162  15.096   3.358  0.00  0.00     0.167 HD
ENDBRANCH  56  58
ENDBRANCH  55  56
ENDBRANCH  21  55
BRANCH  18  60
ATOM     60  C   UNK d   0     -40.284  16.956   4.632  0.00  0.00     0.151 C 
BRANCH  60  61
ATOM     61  C   UNK d   0     -40.079  15.649   3.988  0.00  0.00     0.143 C 
ATOM     62  O   UNK d   0     -39.136  14.877   4.160  0.00  0.00    -0.650 OA
BRANCH  61  63
ATOM     63  O   UNK d   0     -41.091  15.261   3.076  0.00  0.00    -0.776 OA
ATOM     64  H   UNK d   0     -40.910  15.219   2.089  0.00  0.00     0.167 HD
ENDBRANCH  61  63
ENDBRANCH  60  61
ENDBRANCH  18  60
BRANCH  14  65
ATOM     65  C   UNK d   0     -43.142  17.869   4.175  0.00  0.00     0.052 C 
BRANCH  65  66
ATOM     66  C   UNK d   0     -43.588  18.954   5.089  0.00  0.00     0.115 C 
BRANCH  66  67
ATOM     67  C   UNK d   0     -42.893  19.174   6.326  0.00  0.00     0.139 C 
ATOM     68  O   UNK d   0     -42.489  18.152   6.992  0.00  0.00    -0.650 OA
BRANCH  67  69
ATOM     69  O   UNK d   0     -42.586  20.394   6.927  0.00  0.00    -0.776 OA
ATOM     70  H   UNK d   0     -43.392  20.962   7.226  0.00  0.00     0.167 HD
ENDBRANCH  67  69
ENDBRANCH  66  67
ENDBRANCH  65  66
ENDBRANCH  14  65
ENDBRANCH   6   7
ENDBRANCH   5   6
ENDBRANCH   2   5
TORSDOF 28
ENDMDL
MODEL 10
REMARK VINA RESULT:      -6.6      1.872      7.518
REMARK  28 active torsions:
REMARK  status: ('A' for Active; 'I' for Inactive)
REMARK    1  A    between atoms: C_2  and  O_3 
REMARK    2  A    between atoms: C_2  and  C_4 
REMARK    3  A    between atoms: C_4  and  C_5 
REMARK    4  A    between atoms: C_5  and  C_6 
REMARK    5  A    between atoms: C_7  and  C_8 
REMARK    6  A    between atoms: C_8  and  C_9 
REMARK    7  A    between atoms: C_9  and  O_11 
REMARK    8  A    between atoms: C_28  and  C_29 
REMARK    9  A    between atoms: C_29  and  C_30 
REMARK   10  A    between atoms: C_30  and  O_32 
REMARK   11  A    between atoms: C_33  and  C_34 
REMARK   12  A    between atoms: C_34  and  C_35 
REMARK   13  A    between atoms: C_35  and  C_36 
REMARK   14  A    between atoms: C_36  and  O_38 
REMARK   15  A    between atoms: C_39  and  C_40 
REMARK   16  A    between atoms: C_40  and  C_41 
REMARK   17  A    between atoms: C_41  and  C_42 
REMARK   18  A    between atoms: C_42  and  O_44 
REMARK   19  A    between atoms: C_45  and  C_46 
REMARK   20  A    between atoms: C_46  and  C_47 
REMARK   21  A    between atoms: C_47  and  O_49 
REMARK   22  A    between atoms: C_50  and  C_51 
REMARK   23  A    between atoms: C_51  and  C_52 
REMARK   24  A    between atoms: C_52  and  O_54 
REMARK   25  A    between atoms: C_55  and  C_56 
REMARK   26  A    between atoms: C_56  and  C_57 
REMARK   27  A    between atoms: C_57  and  C_58 
REMARK   28  A    between atoms: C_58  and  O_60 
ROOT
ATOM      1  O   UNK d   0     -43.722  22.851  -5.833  0.00  0.00    -0.650 OA
ATOM      2  C   UNK d   0     -44.492  22.059  -5.247  0.00  0.00     0.139 C 
ENDROOT
BRANCH   2   3
ATOM      3  O   UNK d   0     -44.836  20.877  -5.858  0.00  0.00    -0.776 OA
ATOM      4  H   UNK d   0     -44.334  20.545  -6.684  0.00  0.00     0.167 HD
ENDBRANCH   2   3
BRANCH   2   5
ATOM      5  C   UNK d   0     -45.029  22.398  -3.898  0.00  0.00     0.115 C 
BRANCH   5   6
ATOM      6  C   UNK d   0     -45.298  21.140  -3.117  0.00  0.00     0.052 C 
BRANCH   6   7
ATOM      7  C   UNK d   0     -44.323  20.941  -1.982  0.00  0.00    -0.020 A 
ATOM      8  C   UNK d   0     -44.533  21.139  -0.705  0.00  0.00    -0.011 A 
ATOM      9  C   UNK d   0     -43.303  20.824   0.002  0.00  0.00     0.067 A 
ATOM     10  C   UNK d   0     -42.881  20.806   1.341  0.00  0.00     0.062 C 
ATOM     11  N   UNK d   0     -42.394  20.448  -0.922  0.00  0.00    -0.248 NA
ATOM     12  C   UNK d   0     -41.730  20.203   1.858  0.00  0.00     0.041 A 
ATOM     13  N   UNK d   0     -40.464  20.170   1.400  0.00  0.00    -0.355 N 
ATOM     14  C   UNK d   0     -41.834  19.431   3.029  0.00  0.00    -0.022 A 
ATOM     15  C   UNK d   0     -39.764  19.391   2.247  0.00  0.00     0.042 A 
ATOM     16  H   UNK d   0     -40.068  20.703   0.508  0.00  0.00     0.166 HD
ATOM     17  C   UNK d   0     -38.403  19.025   2.237  0.00  0.00     0.062 C 
ATOM     18  C   UNK d   0     -40.589  18.909   3.281  0.00  0.00    -0.013 A 
ATOM     19  C   UNK d   0     -37.630  18.606   1.185  0.00  0.00     0.067 A 
ATOM     20  N   UNK d   0     -38.150  18.740  -0.038  0.00  0.00    -0.248 NA
ATOM     21  C   UNK d   0     -36.317  18.004   1.028  0.00  0.00    -0.011 A 
ATOM     22  C   UNK d   0     -37.273  18.267  -0.983  0.00  0.00     0.066 A 
ATOM     23  C   UNK d   0     -37.672  18.381  -2.307  0.00  0.00     0.062 C 
ATOM     24  C   UNK d   0     -36.115  17.804  -0.243  0.00  0.00    -0.020 A 
ATOM     25  C   UNK d   0     -38.827  19.002  -2.806  0.00  0.00     0.041 A 
ATOM     26  N   UNK d   0     -40.089  19.022  -2.360  0.00  0.00    -0.355 N 
ATOM     27  C   UNK d   0     -38.721  19.781  -3.980  0.00  0.00    -0.022 A 
ATOM     28  C   UNK d   0     -40.790  19.791  -3.207  0.00  0.00     0.042 A 
ATOM     29  H   UNK d   0     -40.487  18.478  -1.469  0.00  0.00     0.166 HD
ATOM     30  C   UNK d   0     -42.146  20.157  -3.215  0.00  0.00     0.062 C 
ATOM     31  C   UNK d   0     -39.958  20.284  -4.240  0.00  0.00    -0.013 A 
ATOM     32  C   UNK d   0     -42.946  20.497  -2.136  0.00  0.00     0.066 A 
BRANCH   8  33
ATOM     33  C   UNK d   0     -45.783  21.603  -0.076  0.00  0.00     0.151 C 
BRANCH  33  34
ATOM     34  C   UNK d   0     -46.724  20.503   0.203  0.00  0.00     0.143 C 
ATOM     35  O   UNK d   0     -47.842  20.472  -0.331  0.00  0.00    -0.650 OA
BRANCH  34  36
ATOM     36  O   UNK d   0     -46.354  19.500   1.068  0.00  0.00    -0.776 OA
ATOM     37  H   UNK d   0     -45.433  19.503   1.527  0.00  0.00     0.167 HD
ENDBRANCH  34  36
ENDBRANCH  33  34
ENDBRANCH   8  33
BRANCH  31  38
ATOM     38  C   UNK d   0     -40.328  21.189  -5.392  0.00  0.00     0.151 C 
BRANCH  38  39
ATOM     39  C   UNK d   0     -40.756  20.458  -6.566  0.00  0.00     0.143 C 
ATOM     40  O   UNK d   0     -40.013  19.655  -7.157  0.00  0.00    -0.650 OA
BRANCH  39  41
ATOM     41  O   UNK d   0     -42.045  20.651  -7.061  0.00  0.00    -0.776 OA
ATOM     42  H   UNK d   0     -42.303  21.610  -7.316  0.00  0.00     0.167 HD
ENDBRANCH  39  41
ENDBRANCH  38  39
ENDBRANCH  31  38
BRANCH  27  43
ATOM     43  C   UNK d   0     -37.514  20.054  -4.842  0.00  0.00     0.052 C 
BRANCH  43  44
ATOM     44  C   UNK d   0     -36.980  21.441  -4.689  0.00  0.00     0.115 C 
BRANCH  44  45
ATOM     45  C   UNK d   0     -35.504  21.347  -4.839  0.00  0.00     0.139 C 
ATOM     46  O   UNK d   0     -34.799  22.253  -4.330  0.00  0.00    -0.650 OA
BRANCH  45  47
ATOM     47  O   UNK d   0     -34.885  20.310  -5.503  0.00  0.00    -0.776 OA
ATOM     48  H   UNK d   0     -33.858  20.215  -5.560  0.00  0.00     0.167 HD
ENDBRANCH  45  47
ENDBRANCH  44  45
ENDBRANCH  43  44
ENDBRANCH  27  43
BRANCH  24  49
ATOM     49  C   UNK d   0     -34.895  17.247  -0.852  0.00  0.00     0.052 C 
BRANCH  49  50
ATOM     50  C   UNK d   0     -34.044  18.351  -1.426  0.00  0.00     0.115 C 
BRANCH  50  51
ATOM     51  C   UNK d   0     -34.006  18.475  -2.876  0.00  0.00     0.139 C 
ATOM     52  O   UNK d   0     -33.281  19.312  -3.465  0.00  0.00    -0.650 OA
BRANCH  51  53
ATOM     53  O   UNK d   0     -34.796  17.646  -3.657  0.00  0.00    -0.776 OA
ATOM     54  H   UNK d   0     -35.356  18.065  -4.380  0.00  0.00     0.167 HD
ENDBRANCH  51  53
ENDBRANCH  50  51
ENDBRANCH  49  50
ENDBRANCH  24  49
BRANCH  21  55
ATOM     55  C   UNK d   0     -35.398  17.695   2.163  0.00  0.00     0.151 C 
BRANCH  55  56
ATOM     56  C   UNK d   0     -35.587  16.326   2.668  0.00  0.00     0.143 C 
ATOM     57  O   UNK d   0     -36.440  16.036   3.530  0.00  0.00    -0.650 OA
BRANCH  56  58
ATOM     58  O   UNK d   0     -34.768  15.324   2.149  0.00  0.00    -0.776 OA
ATOM     59  H   UNK d   0     -34.323  14.714   2.857  0.00  0.00     0.167 HD
ENDBRANCH  56  58
ENDBRANCH  55  56
ENDBRANCH  21  55
BRANCH  18  60
ATOM     60  C   UNK d   0     -40.248  18.009   4.442  0.00  0.00     0.151 C 
BRANCH  60  61
ATOM     61  C   UNK d   0     -40.247  18.870   5.634  0.00  0.00     0.143 C 
ATOM     62  O   UNK d   0     -40.782  18.638   6.719  0.00  0.00    -0.650 OA
BRANCH  61  63
ATOM     63  O   UNK d   0     -39.548  20.094   5.493  0.00  0.00    -0.776 OA
ATOM     64  H   UNK d   0     -40.039  20.955   5.330  0.00  0.00     0.167 HD
ENDBRANCH  61  63
ENDBRANCH  60  61
ENDBRANCH  18  60
BRANCH  14  65
ATOM     65  C   UNK d   0     -42.986  19.231   3.973  0.00  0.00     0.052 C 
BRANCH  65  66
ATOM     66  C   UNK d   0     -43.602  17.882   3.862  0.00  0.00     0.115 C 
BRANCH  66  67
ATOM     67  C   UNK d   0     -43.589  17.195   2.601  0.00  0.00     0.139 C 
ATOM     68  O   UNK d   0     -43.021  16.043   2.536  0.00  0.00    -0.650 OA
BRANCH  67  69
ATOM     69  O   UNK d   0     -44.128  17.626   1.389  0.00  0.00    -0.776 OA
ATOM     70  H   UNK d   0     -45.146  17.506   1.285  0.00  0.00     0.167 HD
ENDBRANCH  67  69
ENDBRANCH  66  67
ENDBRANCH  65  66
ENDBRANCH  14  65
ENDBRANCH   6   7
ENDBRANCH   5   6
ENDBRANCH   2   5
TORSDOF 28
ENDMDL
MODEL 11
REMARK VINA RESULT:      -6.6      1.489      7.606
REMARK  28 active torsions:
REMARK  status: ('A' for Active; 'I' for Inactive)
REMARK    1  A    between atoms: C_2  and  O_3 
REMARK    2  A    between atoms: C_2  and  C_4 
REMARK    3  A    between atoms: C_4  and  C_5 
REMARK    4  A    between atoms: C_5  and  C_6 
REMARK    5  A    between atoms: C_7  and  C_8 
REMARK    6  A    between atoms: C_8  and  C_9 
REMARK    7  A    between atoms: C_9  and  O_11 
REMARK    8  A    between atoms: C_28  and  C_29 
REMARK    9  A    between atoms: C_29  and  C_30 
REMARK   10  A    between atoms: C_30  and  O_32 
REMARK   11  A    between atoms: C_33  and  C_34 
REMARK   12  A    between atoms: C_34  and  C_35 
REMARK   13  A    between atoms: C_35  and  C_36 
REMARK   14  A    between atoms: C_36  and  O_38 
REMARK   15  A    between atoms: C_39  and  C_40 
REMARK   16  A    between atoms: C_40  and  C_41 
REMARK   17  A    between atoms: C_41  and  C_42 
REMARK   18  A    between atoms: C_42  and  O_44 
REMARK   19  A    between atoms: C_45  and  C_46 
REMARK   20  A    between atoms: C_46  and  C_47 
REMARK   21  A    between atoms: C_47  and  O_49 
REMARK   22  A    between atoms: C_50  and  C_51 
REMARK   23  A    between atoms: C_51  and  C_52 
REMARK   24  A    between atoms: C_52  and  O_54 
REMARK   25  A    between atoms: C_55  and  C_56 
REMARK   26  A    between atoms: C_56  and  C_57 
REMARK   27  A    between atoms: C_57  and  C_58 
REMARK   28  A    between atoms: C_58  and  O_60 
ROOT
ATOM      1  O   UNK d   0     -34.332  14.426   3.580  0.00  0.00    -0.650 OA
ATOM      2  C   UNK d   0     -33.851  15.318   2.847  0.00  0.00     0.139 C 
ENDROOT
BRANCH   2   3
ATOM      3  O   UNK d   0     -32.549  15.715   3.034  0.00  0.00    -0.776 OA
ATOM      4  H   UNK d   0     -32.305  16.705   3.107  0.00  0.00     0.167 HD
ENDBRANCH   2   3
BRANCH   2   5
ATOM      5  C   UNK d   0     -34.687  15.942   1.781  0.00  0.00     0.115 C 
BRANCH   5   6
ATOM      6  C   UNK d   0     -35.240  17.257   2.261  0.00  0.00     0.052 C 
BRANCH   6   7
ATOM      7  C   UNK d   0     -35.925  18.034   1.162  0.00  0.00    -0.020 A 
ATOM      8  C   UNK d   0     -35.365  18.686   0.176  0.00  0.00    -0.011 A 
ATOM      9  C   UNK d   0     -36.423  19.283  -0.621  0.00  0.00     0.067 A 
ATOM     10  C   UNK d   0     -36.496  20.062  -1.786  0.00  0.00     0.062 C 
ATOM     11  N   UNK d   0     -37.596  18.948  -0.044  0.00  0.00    -0.248 NA
ATOM     12  C   UNK d   0     -37.629  20.313  -2.568  0.00  0.00     0.041 A 
ATOM     13  N   UNK d   0     -38.896  20.611  -2.223  0.00  0.00    -0.355 N 
ATOM     14  C   UNK d   0     -37.528  20.203  -3.967  0.00  0.00    -0.022 A 
ATOM     15  C   UNK d   0     -39.603  20.686  -3.366  0.00  0.00     0.042 A 
ATOM     16  H   UNK d   0     -39.278  20.785  -1.193  0.00  0.00     0.166 HD
ATOM     17  C   UNK d   0     -40.967  20.969  -3.579  0.00  0.00     0.062 C 
ATOM     18  C   UNK d   0     -38.780  20.436  -4.481  0.00  0.00    -0.013 A 
ATOM     19  C   UNK d   0     -42.063  20.485  -2.911  0.00  0.00     0.067 A 
ATOM     20  N   UNK d   0     -41.833  19.808  -1.783  0.00  0.00    -0.248 NA
ATOM     21  C   UNK d   0     -43.501  20.495  -3.118  0.00  0.00    -0.011 A 
ATOM     22  C   UNK d   0     -43.017  19.375  -1.238  0.00  0.00     0.066 A 
ATOM     23  C   UNK d   0     -42.927  18.687  -0.036  0.00  0.00     0.062 C 
ATOM     24  C   UNK d   0     -44.054  19.841  -2.138  0.00  0.00    -0.020 A 
ATOM     25  C   UNK d   0     -41.781  18.457   0.740  0.00  0.00     0.041 A 
ATOM     26  N   UNK d   0     -40.525  18.146   0.397  0.00  0.00    -0.355 N 
ATOM     27  C   UNK d   0     -41.881  18.572   2.143  0.00  0.00    -0.022 A 
ATOM     28  C   UNK d   0     -39.819  18.062   1.536  0.00  0.00     0.042 A 
ATOM     29  H   UNK d   0     -40.145  17.961  -0.638  0.00  0.00     0.166 HD
ATOM     30  C   UNK d   0     -38.464  17.772   1.763  0.00  0.00     0.062 C 
ATOM     31  C   UNK d   0     -40.645  18.324   2.655  0.00  0.00    -0.013 A 
ATOM     32  C   UNK d   0     -37.366  18.197   1.033  0.00  0.00     0.066 A 
BRANCH   8  33
ATOM     33  C   UNK d   0     -33.920  18.810  -0.094  0.00  0.00     0.151 C 
BRANCH  33  34
ATOM     34  C   UNK d   0     -33.362  20.094   0.367  0.00  0.00     0.143 C 
ATOM     35  O   UNK d   0     -32.446  20.651  -0.255  0.00  0.00    -0.650 OA
BRANCH  34  36
ATOM     36  O   UNK d   0     -33.866  20.679   1.506  0.00  0.00    -0.776 OA
ATOM     37  H   UNK d   0     -33.243  21.055   2.234  0.00  0.00     0.167 HD
ENDBRANCH  34  36
ENDBRANCH  33  34
ENDBRANCH   8  33
BRANCH  31  38
ATOM     38  C   UNK d   0     -40.264  18.347   4.117  0.00  0.00     0.151 C 
BRANCH  38  39
ATOM     39  C   UNK d   0     -40.649  17.139   4.817  0.00  0.00     0.143 C 
ATOM     40  O   UNK d   0     -40.172  16.026   4.534  0.00  0.00    -0.650 OA
BRANCH  39  41
ATOM     41  O   UNK d   0     -41.586  17.213   5.847  0.00  0.00    -0.776 OA
ATOM     42  H   UNK d   0     -42.050  18.115   5.986  0.00  0.00     0.167 HD
ENDBRANCH  39  41
ENDBRANCH  38  39
ENDBRANCH  31  38
BRANCH  27  43
ATOM     43  C   UNK d   0     -43.083  18.898   2.994  0.00  0.00     0.052 C 
BRANCH  43  44
ATOM     44  C   UNK d   0     -43.967  17.720   3.246  0.00  0.00     0.115 C 
BRANCH  44  45
ATOM     45  C   UNK d   0     -44.737  18.023   4.480  0.00  0.00     0.139 C 
ATOM     46  O   UNK d   0     -45.586  18.947   4.436  0.00  0.00    -0.650 OA
BRANCH  45  47
ATOM     47  O   UNK d   0     -44.560  17.331   5.659  0.00  0.00    -0.776 OA
ATOM     48  H   UNK d   0     -44.991  16.410   5.839  0.00  0.00     0.167 HD
ENDBRANCH  45  47
ENDBRANCH  44  45
ENDBRANCH  43  44
ENDBRANCH  27  43
BRANCH  24  49
ATOM     49  C   UNK d   0     -45.498  19.640  -1.932  0.00  0.00     0.052 C 
BRANCH  49  50
ATOM     50  C   UNK d   0     -45.826  18.169  -1.909  0.00  0.00     0.115 C 
BRANCH  50  51
ATOM     51  C   UNK d   0     -46.860  17.704  -2.823  0.00  0.00     0.139 C 
ATOM     52  O   UNK d   0     -47.594  16.720  -2.569  0.00  0.00    -0.650 OA
BRANCH  51  53
ATOM     53  O   UNK d   0     -47.055  18.359  -4.029  0.00  0.00    -0.776 OA
ATOM     54  H   UNK d   0     -47.424  19.294  -4.008  0.00  0.00     0.167 HD
ENDBRANCH  51  53
ENDBRANCH  50  51
ENDBRANCH  49  50
ENDBRANCH  24  49
BRANCH  21  55
ATOM     55  C   UNK d   0     -44.174  21.163  -4.272  0.00  0.00     0.151 C 
BRANCH  55  56
ATOM     56  C   UNK d   0     -43.902  22.608  -4.309  0.00  0.00     0.143 C 
ATOM     57  O   UNK d   0     -44.306  23.393  -3.430  0.00  0.00    -0.650 OA
BRANCH  56  58
ATOM     58  O   UNK d   0     -43.158  23.101  -5.380  0.00  0.00    -0.776 OA
ATOM     59  H   UNK d   0     -43.443  22.744  -6.310  0.00  0.00     0.167 HD
ENDBRANCH  56  58
ENDBRANCH  55  56
ENDBRANCH  21  55
BRANCH  18  60
ATOM     60  C   UNK d   0     -39.131  20.409  -5.948  0.00  0.00     0.151 C 
BRANCH  60  61
ATOM     61  C   UNK d   0     -39.134  21.813  -6.388  0.00  0.00     0.143 C 
ATOM     62  O   UNK d   0     -38.157  22.551  -6.520  0.00  0.00    -0.650 OA
BRANCH  61  63
ATOM     63  O   UNK d   0     -40.410  22.348  -6.685  0.00  0.00    -0.776 OA
ATOM     64  H   UNK d   0     -41.162  21.757  -6.991  0.00  0.00     0.167 HD
ENDBRANCH  61  63
ENDBRANCH  60  61
ENDBRANCH  18  60
BRANCH  14  65
ATOM     65  C   UNK d   0     -36.332  19.995  -4.851  0.00  0.00     0.052 C 
BRANCH  65  66
ATOM     66  C   UNK d   0     -35.319  21.077  -4.723  0.00  0.00     0.115 C 
BRANCH  66  67
ATOM     67  C   UNK d   0     -33.992  20.761  -4.276  0.00  0.00     0.139 C 
ATOM     68  O   UNK d   0     -33.423  21.550  -3.436  0.00  0.00    -0.650 OA
BRANCH  67  69
ATOM     69  O   UNK d   0     -33.205  19.670  -4.643  0.00  0.00    -0.776 OA
ATOM     70  H   UNK d   0     -33.410  19.260  -5.566  0.00  0.00     0.167 HD
ENDBRANCH  67  69
ENDBRANCH  66  67
ENDBRANCH  65  66
ENDBRANCH  14  65
ENDBRANCH   6   7
ENDBRANCH   5   6
ENDBRANCH   2   5
TORSDOF 28
ENDMDL
MODEL 12
REMARK VINA RESULT:      -6.5      1.763      2.345
REMARK  28 active torsions:
REMARK  status: ('A' for Active; 'I' for Inactive)
REMARK    1  A    between atoms: C_2  and  O_3 
REMARK    2  A    between atoms: C_2  and  C_4 
REMARK    3  A    between atoms: C_4  and  C_5 
REMARK    4  A    between atoms: C_5  and  C_6 
REMARK    5  A    between atoms: C_7  and  C_8 
REMARK    6  A    between atoms: C_8  and  C_9 
REMARK    7  A    between atoms: C_9  and  O_11 
REMARK    8  A    between atoms: C_28  and  C_29 
REMARK    9  A    between atoms: C_29  and  C_30 
REMARK   10  A    between atoms: C_30  and  O_32 
REMARK   11  A    between atoms: C_33  and  C_34 
REMARK   12  A    between atoms: C_34  and  C_35 
REMARK   13  A    between atoms: C_35  and  C_36 
REMARK   14  A    between atoms: C_36  and  O_38 
REMARK   15  A    between atoms: C_39  and  C_40 
REMARK   16  A    between atoms: C_40  and  C_41 
REMARK   17  A    between atoms: C_41  and  C_42 
REMARK   18  A    between atoms: C_42  and  O_44 
REMARK   19  A    between atoms: C_45  and  C_46 
REMARK   20  A    between atoms: C_46  and  C_47 
REMARK   21  A    between atoms: C_47  and  O_49 
REMARK   22  A    between atoms: C_50  and  C_51 
REMARK   23  A    between atoms: C_51  and  C_52 
REMARK   24  A    between atoms: C_52  and  O_54 
REMARK   25  A    between atoms: C_55  and  C_56 
REMARK   26  A    between atoms: C_56  and  C_57 
REMARK   27  A    between atoms: C_57  and  C_58 
REMARK   28  A    between atoms: C_58  and  O_60 
ROOT
ATOM      1  O   UNK d   0     -46.026  18.928   4.331  0.00  0.00    -0.650 OA
ATOM      2  C   UNK d   0     -45.052  18.146   4.258  0.00  0.00     0.139 C 
ENDROOT
BRANCH   2   3
ATOM      3  O   UNK d   0     -44.627  17.492   5.390  0.00  0.00    -0.776 OA
ATOM      4  H   UNK d   0     -45.174  17.521   6.252  0.00  0.00     0.167 HD
ENDBRANCH   2   3
BRANCH   2   5
ATOM      5  C   UNK d   0     -44.363  17.928   2.955  0.00  0.00     0.115 C 
BRANCH   5   6
ATOM      6  C   UNK d   0     -43.428  16.753   3.053  0.00  0.00     0.052 C 
BRANCH   6   7
ATOM      7  C   UNK d   0     -41.997  17.123   2.748  0.00  0.00    -0.020 A 
ATOM      8  C   UNK d   0     -40.957  17.006   3.534  0.00  0.00    -0.011 A 
ATOM      9  C   UNK d   0     -39.795  17.497   2.811  0.00  0.00     0.067 A 
ATOM     10  C   UNK d   0     -38.421  17.623   3.069  0.00  0.00     0.062 C 
ATOM     11  N   UNK d   0     -40.221  17.899   1.595  0.00  0.00    -0.248 NA
ATOM     12  C   UNK d   0     -37.404  17.865   2.140  0.00  0.00     0.041 A 
ATOM     13  N   UNK d   0     -37.341  18.710   1.093  0.00  0.00    -0.355 N 
ATOM     14  C   UNK d   0     -36.227  17.098   2.205  0.00  0.00    -0.022 A 
ATOM     15  C   UNK d   0     -36.158  18.493   0.488  0.00  0.00     0.042 A 
ATOM     16  H   UNK d   0     -38.110  19.459   0.800  0.00  0.00     0.166 HD
ATOM     17  C   UNK d   0     -35.588  19.103  -0.647  0.00  0.00     0.062 C 
ATOM     18  C   UNK d   0     -35.432  17.489   1.156  0.00  0.00    -0.013 A 
ATOM     19  C   UNK d   0     -36.171  19.397  -1.853  0.00  0.00     0.067 A 
ATOM     20  N   UNK d   0     -37.500  19.283  -1.926  0.00  0.00    -0.248 NA
ATOM     21  C   UNK d   0     -35.705  19.814  -3.165  0.00  0.00    -0.011 A 
ATOM     22  C   UNK d   0     -37.936  19.594  -3.190  0.00  0.00     0.066 A 
ATOM     23  C   UNK d   0     -39.307  19.553  -3.397  0.00  0.00     0.062 C 
ATOM     24  C   UNK d   0     -36.742  19.923  -3.944  0.00  0.00    -0.020 A 
ATOM     25  C   UNK d   0     -40.314  19.320  -2.447  0.00  0.00     0.041 A 
ATOM     26  N   UNK d   0     -40.382  18.470  -1.416  0.00  0.00    -0.355 N 
ATOM     27  C   UNK d   0     -41.493  20.094  -2.510  0.00  0.00    -0.022 A 
ATOM     28  C   UNK d   0     -41.565  18.678  -0.816  0.00  0.00     0.042 A 
ATOM     29  H   UNK d   0     -39.613  17.711  -1.128  0.00  0.00     0.166 HD
ATOM     30  C   UNK d   0     -42.149  18.073   0.308  0.00  0.00     0.062 C 
ATOM     31  C   UNK d   0     -42.290  19.695  -1.481  0.00  0.00    -0.013 A 
ATOM     32  C   UNK d   0     -41.535  17.700   1.494  0.00  0.00     0.066 A 
BRANCH   8  33
ATOM     33  C   UNK d   0     -40.944  16.479   4.911  0.00  0.00     0.151 C 
BRANCH  33  34
ATOM     34  C   UNK d   0     -41.117  17.532   5.927  0.00  0.00     0.143 C 
ATOM     35  O   UNK d   0     -40.292  18.450   6.040  0.00  0.00    -0.650 OA
BRANCH  34  36
ATOM     36  O   UNK d   0     -42.211  17.493   6.761  0.00  0.00    -0.776 OA
ATOM     37  H   UNK d   0     -42.132  17.155   7.730  0.00  0.00     0.167 HD
ENDBRANCH  34  36
ENDBRANCH  33  34
ENDBRANCH   8  33
BRANCH  31  38
ATOM     38  C   UNK d   0     -43.652  20.252  -1.140  0.00  0.00     0.151 C 
BRANCH  38  39
ATOM     39  C   UNK d   0     -44.733  19.500  -1.740  0.00  0.00     0.143 C 
ATOM     40  O   UNK d   0     -45.364  18.629  -1.116  0.00  0.00    -0.650 OA
BRANCH  39  41
ATOM     41  O   UNK d   0     -45.091  19.751  -3.065  0.00  0.00    -0.776 OA
ATOM     42  H   UNK d   0     -45.853  20.419  -3.218  0.00  0.00     0.167 HD
ENDBRANCH  39  41
ENDBRANCH  38  39
ENDBRANCH  31  38
BRANCH  27  43
ATOM     43  C   UNK d   0     -41.881  21.172  -3.491  0.00  0.00     0.052 C 
BRANCH  43  44
ATOM     44  C   UNK d   0     -41.517  22.547  -3.033  0.00  0.00     0.115 C 
BRANCH  44  45
ATOM     45  C   UNK d   0     -41.143  23.315  -4.249  0.00  0.00     0.139 C 
ATOM     46  O   UNK d   0     -41.693  23.007  -5.336  0.00  0.00    -0.650 OA
BRANCH  45  47
ATOM     47  O   UNK d   0     -40.229  24.346  -4.230  0.00  0.00    -0.776 OA
ATOM     48  H   UNK d   0     -40.363  25.203  -3.670  0.00  0.00     0.167 HD
ENDBRANCH  45  47
ENDBRANCH  44  45
ENDBRANCH  43  44
ENDBRANCH  27  43
BRANCH  24  49
ATOM     49  C   UNK d   0     -36.729  20.358  -5.351  0.00  0.00     0.052 C 
BRANCH  49  50
ATOM     50  C   UNK d   0     -37.266  21.762  -5.471  0.00  0.00     0.115 C 
BRANCH  50  51
ATOM     51  C   UNK d   0     -38.473  21.946  -6.265  0.00  0.00     0.139 C 
ATOM     52  O   UNK d   0     -39.217  20.993  -6.597  0.00  0.00    -0.650 OA
BRANCH  51  53
ATOM     53  O   UNK d   0     -38.831  23.219  -6.684  0.00  0.00    -0.776 OA
ATOM     54  H   UNK d   0     -39.691  23.328  -7.192  0.00  0.00     0.167 HD
ENDBRANCH  51  53
ENDBRANCH  50  51
ENDBRANCH  49  50
ENDBRANCH  24  49
BRANCH  21  55
ATOM     55  C   UNK d   0     -34.272  20.063  -3.502  0.00  0.00     0.151 C 
BRANCH  55  56
ATOM     56  C   UNK d   0     -33.832  21.402  -3.080  0.00  0.00     0.143 C 
ATOM     57  O   UNK d   0     -33.107  21.590  -2.083  0.00  0.00    -0.650 OA
BRANCH  56  58
ATOM     58  O   UNK d   0     -34.252  22.493  -3.838  0.00  0.00    -0.776 OA
ATOM     59  H   UNK d   0     -35.096  22.975  -3.479  0.00  0.00     0.167 HD
ENDBRANCH  56  58
ENDBRANCH  55  56
ENDBRANCH  21  55
BRANCH  18  60
ATOM     60  C   UNK d   0     -34.072  16.916   0.841  0.00  0.00     0.151 C 
BRANCH  60  61
ATOM     61  C   UNK d   0     -34.315  15.561   0.322  0.00  0.00     0.143 C 
ATOM     62  O   UNK d   0     -35.081  15.242  -0.588  0.00  0.00    -0.650 OA
BRANCH  61  63
ATOM     63  O   UNK d   0     -33.576  14.532   0.953  0.00  0.00    -0.776 OA
ATOM     64  H   UNK d   0     -33.328  14.593   1.924  0.00  0.00     0.167 HD
ENDBRANCH  61  63
ENDBRANCH  60  61
ENDBRANCH  18  60
BRANCH  14  65
ATOM     65  C   UNK d   0     -35.759  16.103   3.229  0.00  0.00     0.052 C 
BRANCH  65  66
ATOM     66  C   UNK d   0     -34.836  16.694   4.235  0.00  0.00     0.115 C 
BRANCH  66  67
ATOM     67  C   UNK d   0     -33.418  16.511   4.093  0.00  0.00     0.139 C 
ATOM     68  O   UNK d   0     -32.981  15.352   3.748  0.00  0.00    -0.650 OA
BRANCH  67  69
ATOM     69  O   UNK d   0     -32.412  17.457   4.287  0.00  0.00    -0.776 OA
ATOM     70  H   UNK d   0     -31.714  17.227   5.008  0.00  0.00     0.167 HD
ENDBRANCH  67  69
ENDBRANCH  66  67
ENDBRANCH  65  66
ENDBRANCH  14  65
ENDBRANCH   6   7
ENDBRANCH   5   6
ENDBRANCH   2   5
TORSDOF 28
ENDMDL
MODEL 13
REMARK VINA RESULT:      -6.5      2.191      9.478
REMARK  28 active torsions:
REMARK  status: ('A' for Active; 'I' for Inactive)
REMARK    1  A    between atoms: C_2  and  O_3 
REMARK    2  A    between atoms: C_2  and  C_4 
REMARK    3  A    between atoms: C_4  and  C_5 
REMARK    4  A    between atoms: C_5  and  C_6 
REMARK    5  A    between atoms: C_7  and  C_8 
REMARK    6  A    between atoms: C_8  and  C_9 
REMARK    7  A    between atoms: C_9  and  O_11 
REMARK    8  A    between atoms: C_28  and  C_29 
REMARK    9  A    between atoms: C_29  and  C_30 
REMARK   10  A    between atoms: C_30  and  O_32 
REMARK   11  A    between atoms: C_33  and  C_34 
REMARK   12  A    between atoms: C_34  and  C_35 
REMARK   13  A    between atoms: C_35  and  C_36 
REMARK   14  A    between atoms: C_36  and  O_38 
REMARK   15  A    between atoms: C_39  and  C_40 
REMARK   16  A    between atoms: C_40  and  C_41 
REMARK   17  A    between atoms: C_41  and  C_42 
REMARK   18  A    between atoms: C_42  and  O_44 
REMARK   19  A    between atoms: C_45  and  C_46 
REMARK   20  A    between atoms: C_46  and  C_47 
REMARK   21  A    between atoms: C_47  and  O_49 
REMARK   22  A    between atoms: C_50  and  C_51 
REMARK   23  A    between atoms: C_51  and  C_52 
REMARK   24  A    between atoms: C_52  and  O_54 
REMARK   25  A    between atoms: C_55  and  C_56 
REMARK   26  A    between atoms: C_56  and  C_57 
REMARK   27  A    between atoms: C_57  and  C_58 
REMARK   28  A    between atoms: C_58  and  O_60 
ROOT
ATOM      1  O   UNK d   0     -34.929  19.156   0.954  0.00  0.00    -0.650 OA
ATOM      2  C   UNK d   0     -34.791  18.470  -0.083  0.00  0.00     0.139 C 
ENDROOT
BRANCH   2   3
ATOM      3  O   UNK d   0     -35.097  17.131  -0.049  0.00  0.00    -0.776 OA
ATOM      4  H   UNK d   0     -36.045  16.811   0.161  0.00  0.00     0.167 HD
ENDBRANCH   2   3
BRANCH   2   5
ATOM      5  C   UNK d   0     -34.300  19.103  -1.339  0.00  0.00     0.115 C 
BRANCH   5   6
ATOM      6  C   UNK d   0     -34.948  18.456  -2.533  0.00  0.00     0.052 C 
BRANCH   6   7
ATOM      7  C   UNK d   0     -36.144  19.229  -3.035  0.00  0.00    -0.020 A 
ATOM      8  C   UNK d   0     -36.166  20.152  -3.962  0.00  0.00    -0.011 A 
ATOM      9  C   UNK d   0     -37.537  20.614  -4.097  0.00  0.00     0.067 A 
ATOM     10  C   UNK d   0     -38.218  21.543  -4.900  0.00  0.00     0.062 C 
ATOM     11  N   UNK d   0     -38.282  19.923  -3.209  0.00  0.00    -0.248 NA
ATOM     12  C   UNK d   0     -39.601  21.654  -5.079  0.00  0.00     0.041 A 
ATOM     13  N   UNK d   0     -40.618  21.586  -4.198  0.00  0.00    -0.355 N 
ATOM     14  C   UNK d   0     -40.108  21.811  -6.382  0.00  0.00    -0.022 A 
ATOM     15  C   UNK d   0     -41.756  21.689  -4.909  0.00  0.00     0.042 A 
ATOM     16  H   UNK d   0     -40.531  21.488  -3.094  0.00  0.00     0.166 HD
ATOM     17  C   UNK d   0     -43.101  21.680  -4.487  0.00  0.00     0.062 C 
ATOM     18  C   UNK d   0     -41.477  21.831  -6.282  0.00  0.00    -0.013 A 
ATOM     19  C   UNK d   0     -43.716  20.848  -3.588  0.00  0.00     0.067 A 
ATOM     20  N   UNK d   0     -42.926  20.060  -2.853  0.00  0.00    -0.248 NA
ATOM     21  C   UNK d   0     -45.087  20.559  -3.200  0.00  0.00    -0.011 A 
ATOM     22  C   UNK d   0     -43.681  19.277  -2.014  0.00  0.00     0.066 A 
ATOM     23  C   UNK d   0     -42.982  18.434  -1.163  0.00  0.00     0.062 C 
ATOM     24  C   UNK d   0     -45.060  19.637  -2.282  0.00  0.00    -0.020 A 
ATOM     25  C   UNK d   0     -41.592  18.347  -0.989  0.00  0.00     0.041 A 
ATOM     26  N   UNK d   0     -40.582  18.399  -1.866  0.00  0.00    -0.355 N 
ATOM     27  C   UNK d   0     -41.084  18.194   0.319  0.00  0.00    -0.022 A 
ATOM     28  C   UNK d   0     -39.446  18.288  -1.161  0.00  0.00     0.042 A 
ATOM     29  H   UNK d   0     -40.671  18.488  -2.977  0.00  0.00     0.166 HD
ATOM     30  C   UNK d   0     -38.103  18.286  -1.568  0.00  0.00     0.062 C 
ATOM     31  C   UNK d   0     -39.727  18.156   0.220  0.00  0.00    -0.013 A 
ATOM     32  C   UNK d   0     -37.503  19.072  -2.539  0.00  0.00     0.066 A 
BRANCH   8  33
ATOM     33  C   UNK d   0     -35.017  20.653  -4.740  0.00  0.00     0.151 C 
BRANCH  33  34
ATOM     34  C   UNK d   0     -34.377  21.826  -4.119  0.00  0.00     0.143 C 
ATOM     35  O   UNK d   0     -34.901  22.947  -4.186  0.00  0.00    -0.650 OA
BRANCH  34  36
ATOM     36  O   UNK d   0     -33.179  21.672  -3.459  0.00  0.00    -0.776 OA
ATOM     37  H   UNK d   0     -33.038  20.913  -2.779  0.00  0.00     0.167 HD
ENDBRANCH  34  36
ENDBRANCH  33  34
ENDBRANCH   8  33
BRANCH  31  38
ATOM     38  C   UNK d   0     -38.753  18.016   1.367  0.00  0.00     0.151 C 
BRANCH  38  39
ATOM     39  C   UNK d   0     -38.293  19.293   1.871  0.00  0.00     0.143 C 
ATOM     40  O   UNK d   0     -38.756  20.374   1.468  0.00  0.00    -0.650 OA
BRANCH  39  41
ATOM     41  O   UNK d   0     -37.295  19.326   2.845  0.00  0.00    -0.776 OA
ATOM     42  H   UNK d   0     -36.327  19.373   2.513  0.00  0.00     0.167 HD
ENDBRANCH  39  41
ENDBRANCH  38  39
ENDBRANCH  31  38
BRANCH  27  43
ATOM     43  C   UNK d   0     -41.825  18.082   1.628  0.00  0.00     0.052 C 
BRANCH  43  44
ATOM     44  C   UNK d   0     -42.213  16.680   1.970  0.00  0.00     0.115 C 
BRANCH  44  45
ATOM     45  C   UNK d   0     -41.551  16.359   3.261  0.00  0.00     0.139 C 
ATOM     46  O   UNK d   0     -41.065  17.306   3.928  0.00  0.00    -0.650 OA
BRANCH  45  47
ATOM     47  O   UNK d   0     -41.456  15.076   3.754  0.00  0.00    -0.776 OA
ATOM     48  H   UNK d   0     -41.718  14.243   3.202  0.00  0.00     0.167 HD
ENDBRANCH  45  47
ENDBRANCH  44  45
ENDBRANCH  43  44
ENDBRANCH  27  43
BRANCH  24  49
ATOM     49  C   UNK d   0     -46.226  19.074  -1.581  0.00  0.00     0.052 C 
BRANCH  49  50
ATOM     50  C   UNK d   0     -46.359  17.603  -1.880  0.00  0.00     0.115 C 
BRANCH  50  51
ATOM     51  C   UNK d   0     -47.268  17.223  -2.954  0.00  0.00     0.139 C 
ATOM     52  O   UNK d   0     -48.476  16.954  -2.754  0.00  0.00    -0.650 OA
BRANCH  51  53
ATOM     53  O   UNK d   0     -46.798  17.146  -4.256  0.00  0.00    -0.776 OA
ATOM     54  H   UNK d   0     -45.808  17.229  -4.410  0.00  0.00     0.167 HD
ENDBRANCH  51  53
ENDBRANCH  50  51
ENDBRANCH  49  50
ENDBRANCH  24  49
BRANCH  21  55
ATOM     55  C   UNK d   0     -46.281  21.239  -3.784  0.00  0.00     0.151 C 
BRANCH  55  56
ATOM     56  C   UNK d   0     -46.624  20.707  -5.112  0.00  0.00     0.143 C 
ATOM     57  O   UNK d   0     -47.414  19.757  -5.274  0.00  0.00    -0.650 OA
BRANCH  56  58
ATOM     58  O   UNK d   0     -46.031  21.303  -6.223  0.00  0.00    -0.776 OA
ATOM     59  H   UNK d   0     -45.674  22.263  -6.065  0.00  0.00     0.167 HD
ENDBRANCH  56  58
ENDBRANCH  55  56
ENDBRANCH  21  55
BRANCH  18  60
ATOM     60  C   UNK d   0     -42.426  21.975  -7.446  0.00  0.00     0.151 C 
BRANCH  60  61
ATOM     61  C   UNK d   0     -42.590  23.422  -7.657  0.00  0.00     0.143 C 
ATOM     62  O   UNK d   0     -43.124  24.227  -6.893  0.00  0.00    -0.650 OA
BRANCH  61  63
ATOM     63  O   UNK d   0     -42.069  23.916  -8.877  0.00  0.00    -0.776 OA
ATOM     64  H   UNK d   0     -41.388  24.654  -8.889  0.00  0.00     0.167 HD
ENDBRANCH  61  63
ENDBRANCH  60  61
ENDBRANCH  18  60
BRANCH  14  65
ATOM     65  C   UNK d   0     -39.402  22.041  -7.688  0.00  0.00     0.052 C 
BRANCH  65  66
ATOM     66  C   UNK d   0     -39.570  20.915  -8.646  0.00  0.00     0.115 C 
BRANCH  66  67
ATOM     67  C   UNK d   0     -39.698  21.188 -10.050  0.00  0.00     0.139 C 
ATOM     68  O   UNK d   0     -40.352  22.234 -10.414  0.00  0.00    -0.650 OA
BRANCH  67  69
ATOM     69  O   UNK d   0     -39.191  20.443 -11.114  0.00  0.00    -0.776 OA
ATOM     70  H   UNK d   0     -39.826  20.314 -11.914  0.00  0.00     0.167 HD
ENDBRANCH  67  69
ENDBRANCH  66  67
ENDBRANCH  65  66
ENDBRANCH  14  65
ENDBRANCH   6   7
ENDBRANCH   5   6
ENDBRANCH   2   5
TORSDOF 28
ENDMDL
MODEL 14
REMARK VINA RESULT:      -6.4      2.168      8.081
REMARK  28 active torsions:
REMARK  status: ('A' for Active; 'I' for Inactive)
REMARK    1  A    between atoms: C_2  and  O_3 
REMARK    2  A    between atoms: C_2  and  C_4 
REMARK    3  A    between atoms: C_4  and  C_5 
REMARK    4  A    between atoms: C_5  and  C_6 
REMARK    5  A    between atoms: C_7  and  C_8 
REMARK    6  A    between atoms: C_8  and  C_9 
REMARK    7  A    between atoms: C_9  and  O_11 
REMARK    8  A    between atoms: C_28  and  C_29 
REMARK    9  A    between atoms: C_29  and  C_30 
REMARK   10  A    between atoms: C_30  and  O_32 
REMARK   11  A    between atoms: C_33  and  C_34 
REMARK   12  A    between atoms: C_34  and  C_35 
REMARK   13  A    between atoms: C_35  and  C_36 
REMARK   14  A    between atoms: C_36  and  O_38 
REMARK   15  A    between atoms: C_39  and  C_40 
REMARK   16  A    between atoms: C_40  and  C_41 
REMARK   17  A    between atoms: C_41  and  C_42 
REMARK   18  A    between atoms: C_42  and  O_44 
REMARK   19  A    between atoms: C_45  and  C_46 
REMARK   20  A    between atoms: C_46  and  C_47 
REMARK   21  A    between atoms: C_47  and  O_49 
REMARK   22  A    between atoms: C_50  and  C_51 
REMARK   23  A    between atoms: C_51  and  C_52 
REMARK   24  A    between atoms: C_52  and  O_54 
REMARK   25  A    between atoms: C_55  and  C_56 
REMARK   26  A    between atoms: C_56  and  C_57 
REMARK   27  A    between atoms: C_57  and  C_58 
REMARK   28  A    between atoms: C_58  and  O_60 
ROOT
ATOM      1  O   UNK d   0     -33.405  16.078   0.182  0.00  0.00    -0.650 OA
ATOM      2  C   UNK d   0     -34.639  16.183   0.354  0.00  0.00     0.139 C 
ENDROOT
BRANCH   2   3
ATOM      3  O   UNK d   0     -35.481  16.078  -0.726  0.00  0.00    -0.776 OA
ATOM      4  H   UNK d   0     -35.577  15.198  -1.238  0.00  0.00     0.167 HD
ENDBRANCH   2   3
BRANCH   2   5
ATOM      5  C   UNK d   0     -35.187  16.420   1.720  0.00  0.00     0.115 C 
BRANCH   5   6
ATOM      6  C   UNK d   0     -35.055  17.874   2.085  0.00  0.00     0.052 C 
BRANCH   6   7
ATOM      7  C   UNK d   0     -35.967  18.762   1.272  0.00  0.00    -0.020 A 
ATOM      8  C   UNK d   0     -35.624  19.731   0.464  0.00  0.00    -0.011 A 
ATOM      9  C   UNK d   0     -36.841  20.305  -0.086  0.00  0.00     0.067 A 
ATOM     10  C   UNK d   0     -37.159  21.324  -0.997  0.00  0.00     0.062 C 
ATOM     11  N   UNK d   0     -37.879  19.627   0.447  0.00  0.00    -0.248 NA
ATOM     12  C   UNK d   0     -38.391  21.550  -1.619  0.00  0.00     0.041 A 
ATOM     13  N   UNK d   0     -39.648  21.515  -1.136  0.00  0.00    -0.355 N 
ATOM     14  C   UNK d   0     -38.418  21.815  -3.000  0.00  0.00    -0.022 A 
ATOM     15  C   UNK d   0     -40.471  21.742  -2.176  0.00  0.00     0.042 A 
ATOM     16  H   UNK d   0     -39.946  21.352  -0.077  0.00  0.00     0.166 HD
ATOM     17  C   UNK d   0     -41.878  21.814  -2.229  0.00  0.00     0.062 C 
ATOM     18  C   UNK d   0     -39.737  21.935  -3.362  0.00  0.00    -0.013 A 
ATOM     19  C   UNK d   0     -42.806  20.985  -1.653  0.00  0.00     0.067 A 
ATOM     20  N   UNK d   0     -42.355  20.102  -0.758  0.00  0.00    -0.248 NA
ATOM     21  C   UNK d   0     -44.241  20.784  -1.767  0.00  0.00    -0.011 A 
ATOM     22  C   UNK d   0     -43.391  19.336  -0.281  0.00  0.00     0.066 A 
ATOM     23  C   UNK d   0     -43.068  18.398   0.688  0.00  0.00     0.062 C 
ATOM     24  C   UNK d   0     -44.576  19.814  -0.965  0.00  0.00    -0.020 A 
ATOM     25  C   UNK d   0     -41.825  18.195   1.309  0.00  0.00     0.041 A 
ATOM     26  N   UNK d   0     -40.577  18.216   0.826  0.00  0.00    -0.355 N 
ATOM     27  C   UNK d   0     -41.799  17.934   2.697  0.00  0.00    -0.022 A 
ATOM     28  C   UNK d   0     -39.755  17.980   1.860  0.00  0.00     0.042 A 
ATOM     29  H   UNK d   0     -40.280  18.369  -0.240  0.00  0.00     0.166 HD
ATOM     30  C   UNK d   0     -38.355  17.897   1.926  0.00  0.00     0.062 C 
ATOM     31  C   UNK d   0     -40.493  17.798   3.054  0.00  0.00    -0.013 A 
ATOM     32  C   UNK d   0     -37.420  18.685   1.273  0.00  0.00     0.066 A 
BRANCH   8  33
ATOM     33  C   UNK d   0     -34.254  20.183   0.154  0.00  0.00     0.151 C 
BRANCH  33  34
ATOM     34  C   UNK d   0     -33.864  19.907  -1.240  0.00  0.00     0.143 C 
ATOM     35  O   UNK d   0     -33.888  18.753  -1.691  0.00  0.00    -0.650 OA
BRANCH  34  36
ATOM     36  O   UNK d   0     -33.466  20.947  -2.048  0.00  0.00    -0.776 OA
ATOM     37  H   UNK d   0     -33.507  21.922  -1.723  0.00  0.00     0.167 HD
ENDBRANCH  34  36
ENDBRANCH  33  34
ENDBRANCH   8  33
BRANCH  31  38
ATOM     38  C   UNK d   0     -39.973  17.523   4.446  0.00  0.00     0.151 C 
BRANCH  38  39
ATOM     39  C   UNK d   0     -39.843  18.724   5.243  0.00  0.00     0.143 C 
ATOM     40  O   UNK d   0     -39.213  19.721   4.847  0.00  0.00    -0.650 OA
BRANCH  39  41
ATOM     41  O   UNK d   0     -40.440  18.780   6.502  0.00  0.00    -0.776 OA
ATOM     42  H   UNK d   0     -41.456  18.655   6.537  0.00  0.00     0.167 HD
ENDBRANCH  39  41
ENDBRANCH  38  39
ENDBRANCH  31  38
BRANCH  27  43
ATOM     43  C   UNK d   0     -42.944  17.811   3.671  0.00  0.00     0.052 C 
BRANCH  43  44
ATOM     44  C   UNK d   0     -43.359  19.118   4.263  0.00  0.00     0.115 C 
BRANCH  44  45
ATOM     45  C   UNK d   0     -44.140  18.801   5.487  0.00  0.00     0.139 C 
ATOM     46  O   UNK d   0     -44.565  19.757   6.182  0.00  0.00    -0.650 OA
BRANCH  45  47
ATOM     47  O   UNK d   0     -44.417  17.510   5.883  0.00  0.00    -0.776 OA
ATOM     48  H   UNK d   0     -44.030  17.093   6.745  0.00  0.00     0.167 HD
ENDBRANCH  45  47
ENDBRANCH  44  45
ENDBRANCH  43  44
ENDBRANCH  27  43
BRANCH  24  49
ATOM     49  C   UNK d   0     -45.940  19.307  -0.739  0.00  0.00     0.052 C 
BRANCH  49  50
ATOM     50  C   UNK d   0     -46.100  17.941  -1.355  0.00  0.00     0.115 C 
BRANCH  50  51
ATOM     51  C   UNK d   0     -47.422  17.589  -1.856  0.00  0.00     0.139 C 
ATOM     52  O   UNK d   0     -48.303  17.068  -1.133  0.00  0.00    -0.650 OA
BRANCH  51  53
ATOM     53  O   UNK d   0     -47.738  17.829  -3.185  0.00  0.00    -0.776 OA
ATOM     54  H   UNK d   0     -47.970  17.043  -3.767  0.00  0.00     0.167 HD
ENDBRANCH  51  53
ENDBRANCH  50  51
ENDBRANCH  49  50
ENDBRANCH  24  49
BRANCH  21  55
ATOM     55  C   UNK d   0     -45.127  21.583  -2.663  0.00  0.00     0.151 C 
BRANCH  55  56
ATOM     56  C   UNK d   0     -45.360  20.912  -3.952  0.00  0.00     0.143 C 
ATOM     57  O   UNK d   0     -46.418  20.309  -4.217  0.00  0.00    -0.650 OA
BRANCH  56  58
ATOM     58  O   UNK d   0     -44.342  20.963  -4.903  0.00  0.00    -0.776 OA
ATOM     59  H   UNK d   0     -44.620  20.666  -5.856  0.00  0.00     0.167 HD
ENDBRANCH  56  58
ENDBRANCH  55  56
ENDBRANCH  21  55
BRANCH  18  60
ATOM     60  C   UNK d   0     -40.227  22.213  -4.762  0.00  0.00     0.151 C 
BRANCH  60  61
ATOM     61  C   UNK d   0     -40.741  20.932  -5.271  0.00  0.00     0.143 C 
ATOM     62  O   UNK d   0     -41.663  20.768  -6.072  0.00  0.00    -0.650 OA
BRANCH  61  63
ATOM     63  O   UNK d   0     -40.089  19.779  -4.772  0.00  0.00    -0.776 OA
ATOM     64  H   UNK d   0     -40.465  18.861  -4.930  0.00  0.00     0.167 HD
ENDBRANCH  61  63
ENDBRANCH  60  61
ENDBRANCH  18  60
BRANCH  14  65
ATOM     65  C   UNK d   0     -37.301  22.058  -3.975  0.00  0.00     0.052 C 
BRANCH  65  66
ATOM     66  C   UNK d   0     -36.981  20.864  -4.802  0.00  0.00     0.115 C 
BRANCH  66  67
ATOM     67  C   UNK d   0     -36.085  19.864  -4.293  0.00  0.00     0.139 C 
ATOM     68  O   UNK d   0     -36.573  18.905  -3.588  0.00  0.00    -0.650 OA
BRANCH  67  69
ATOM     69  O   UNK d   0     -34.703  19.789  -4.465  0.00  0.00    -0.776 OA
ATOM     70  H   UNK d   0     -34.382  19.244  -5.278  0.00  0.00     0.167 HD
ENDBRANCH  67  69
ENDBRANCH  66  67
ENDBRANCH  65  66
ENDBRANCH  14  65
ENDBRANCH   6   7
ENDBRANCH   5   6
ENDBRANCH   2   5
TORSDOF 28
ENDMDL
MODEL 15
REMARK VINA RESULT:      -6.4      1.594      7.468
REMARK  28 active torsions:
REMARK  status: ('A' for Active; 'I' for Inactive)
REMARK    1  A    between atoms: C_2  and  O_3 
REMARK    2  A    between atoms: C_2  and  C_4 
REMARK    3  A    between atoms: C_4  and  C_5 
REMARK    4  A    between atoms: C_5  and  C_6 
REMARK    5  A    between atoms: C_7  and  C_8 
REMARK    6  A    between atoms: C_8  and  C_9 
REMARK    7  A    between atoms: C_9  and  O_11 
REMARK    8  A    between atoms: C_28  and  C_29 
REMARK    9  A    between atoms: C_29  and  C_30 
REMARK   10  A    between atoms: C_30  and  O_32 
REMARK   11  A    between atoms: C_33  and  C_34 
REMARK   12  A    between atoms: C_34  and  C_35 
REMARK   13  A    between atoms: C_35  and  C_36 
REMARK   14  A    between atoms: C_36  and  O_38 
REMARK   15  A    between atoms: C_39  and  C_40 
REMARK   16  A    between atoms: C_40  and  C_41 
REMARK   17  A    between atoms: C_41  and  C_42 
REMARK   18  A    between atoms: C_42  and  O_44 
REMARK   19  A    between atoms: C_45  and  C_46 
REMARK   20  A    between atoms: C_46  and  C_47 
REMARK   21  A    between atoms: C_47  and  O_49 
REMARK   22  A    between atoms: C_50  and  C_51 
REMARK   23  A    between atoms: C_51  and  C_52 
REMARK   24  A    between atoms: C_52  and  O_54 
REMARK   25  A    between atoms: C_55  and  C_56 
REMARK   26  A    between atoms: C_56  and  C_57 
REMARK   27  A    between atoms: C_57  and  C_58 
REMARK   28  A    between atoms: C_58  and  O_60 
ROOT
ATOM      1  O   UNK d   0     -41.015  18.244   6.832  0.00  0.00    -0.650 OA
ATOM      2  C   UNK d   0     -40.493  18.924   5.921  0.00  0.00     0.139 C 
ENDROOT
BRANCH   2   3
ATOM      3  O   UNK d   0     -40.886  20.229   5.745  0.00  0.00    -0.776 OA
ATOM      4  H   UNK d   0     -41.840  20.526   5.960  0.00  0.00     0.167 HD
ENDBRANCH   2   3
BRANCH   2   5
ATOM      5  C   UNK d   0     -39.456  18.321   5.037  0.00  0.00     0.115 C 
BRANCH   5   6
ATOM      6  C   UNK d   0     -40.031  17.146   4.293  0.00  0.00     0.052 C 
BRANCH   6   7
ATOM      7  C   UNK d   0     -40.639  17.538   2.967  0.00  0.00    -0.020 A 
ATOM      8  C   UNK d   0     -41.902  17.506   2.629  0.00  0.00    -0.011 A 
ATOM      9  C   UNK d   0     -42.006  17.966   1.254  0.00  0.00     0.067 A 
ATOM     10  C   UNK d   0     -43.044  18.182   0.334  0.00  0.00     0.062 C 
ATOM     11  N   UNK d   0     -40.756  18.251   0.831  0.00  0.00    -0.248 NA
ATOM     12  C   UNK d   0     -42.977  18.899  -0.866  0.00  0.00     0.041 A 
ATOM     13  N   UNK d   0     -42.040  18.923  -1.833  0.00  0.00    -0.355 N 
ATOM     14  C   UNK d   0     -43.999  19.817  -1.168  0.00  0.00    -0.022 A 
ATOM     15  C   UNK d   0     -42.437  19.838  -2.737  0.00  0.00     0.042 A 
ATOM     16  H   UNK d   0     -41.126  18.291  -1.886  0.00  0.00     0.166 HD
ATOM     17  C   UNK d   0     -41.832  20.258  -3.939  0.00  0.00     0.062 C 
ATOM     18  C   UNK d   0     -43.661  20.421  -2.354  0.00  0.00    -0.013 A 
ATOM     19  C   UNK d   0     -40.517  20.562  -4.182  0.00  0.00     0.067 A 
ATOM     20  N   UNK d   0     -39.636  20.242  -3.230  0.00  0.00    -0.248 NA
ATOM     21  C   UNK d   0     -39.772  21.193  -5.259  0.00  0.00    -0.011 A 
ATOM     22  C   UNK d   0     -38.370  20.619  -3.606  0.00  0.00     0.066 A 
ATOM     23  C   UNK d   0     -37.347  20.310  -2.722  0.00  0.00     0.062 C 
ATOM     24  C   UNK d   0     -38.518  21.226  -4.914  0.00  0.00    -0.020 A 
ATOM     25  C   UNK d   0     -37.434  19.578  -1.528  0.00  0.00     0.041 A 
ATOM     26  N   UNK d   0     -38.357  19.565  -0.559  0.00  0.00    -0.355 N 
ATOM     27  C   UNK d   0     -36.410  18.653  -1.227  0.00  0.00    -0.022 A 
ATOM     28  C   UNK d   0     -37.959  18.660   0.348  0.00  0.00     0.042 A 
ATOM     29  H   UNK d   0     -39.270  20.208  -0.502  0.00  0.00     0.166 HD
ATOM     30  C   UNK d   0     -38.546  18.239   1.552  0.00  0.00     0.062 C 
ATOM     31  C   UNK d   0     -36.735  18.067  -0.043  0.00  0.00    -0.013 A 
ATOM     32  C   UNK d   0     -39.888  18.015   1.816  0.00  0.00     0.066 A 
BRANCH   8  33
ATOM     33  C   UNK d   0     -43.034  17.079   3.472  0.00  0.00     0.151 C 
BRANCH  33  34
ATOM     34  C   UNK d   0     -43.466  18.123   4.419  0.00  0.00     0.143 C 
ATOM     35  O   UNK d   0     -43.477  19.317   4.089  0.00  0.00    -0.650 OA
BRANCH  34  36
ATOM     36  O   UNK d   0     -43.858  17.762   5.688  0.00  0.00    -0.776 OA
ATOM     37  H   UNK d   0     -44.782  18.027   6.056  0.00  0.00     0.167 HD
ENDBRANCH  34  36
ENDBRANCH  33  34
ENDBRANCH   8  33
BRANCH  31  38
ATOM     38  C   UNK d   0     -35.939  16.999   0.671  0.00  0.00     0.151 C 
BRANCH  38  39
ATOM     39  C   UNK d   0     -35.308  17.483   1.881  0.00  0.00     0.143 C 
ATOM     40  O   UNK d   0     -35.240  16.797   2.916  0.00  0.00    -0.650 OA
BRANCH  39  41
ATOM     41  O   UNK d   0     -34.753  18.762   1.900  0.00  0.00    -0.776 OA
ATOM     42  H   UNK d   0     -35.050  19.406   1.161  0.00  0.00     0.167 HD
ENDBRANCH  39  41
ENDBRANCH  38  39
ENDBRANCH  31  38
BRANCH  27  43
ATOM     43  C   UNK d   0     -35.163  18.317  -2.007  0.00  0.00     0.052 C 
BRANCH  43  44
ATOM     44  C   UNK d   0     -33.955  19.062  -1.539  0.00  0.00     0.115 C 
BRANCH  44  45
ATOM     45  C   UNK d   0     -33.872  20.297  -2.361  0.00  0.00     0.139 C 
ATOM     46  O   UNK d   0     -33.581  20.179  -3.577  0.00  0.00    -0.650 OA
BRANCH  45  47
ATOM     47  O   UNK d   0     -34.106  21.554  -1.847  0.00  0.00    -0.776 OA
ATOM     48  H   UNK d   0     -34.473  21.710  -0.895  0.00  0.00     0.167 HD
ENDBRANCH  45  47
ENDBRANCH  44  45
ENDBRANCH  43  44
ENDBRANCH  27  43
BRANCH  24  49
ATOM     49  C   UNK d   0     -37.407  21.747  -5.729  0.00  0.00     0.052 C 
BRANCH  49  50
ATOM     50  C   UNK d   0     -37.083  23.164  -5.330  0.00  0.00     0.115 C 
BRANCH  50  51
ATOM     51  C   UNK d   0     -36.113  23.348  -4.259  0.00  0.00     0.139 C 
ATOM     52  O   UNK d   0     -36.403  23.898  -3.171  0.00  0.00    -0.650 OA
BRANCH  51  53
ATOM     53  O   UNK d   0     -34.810  22.906  -4.430  0.00  0.00    -0.776 OA
ATOM     54  H   UNK d   0     -34.288  23.257  -5.214  0.00  0.00     0.167 HD
ENDBRANCH  51  53
ENDBRANCH  50  51
ENDBRANCH  49  50
ENDBRANCH  24  49
BRANCH  21  55
ATOM     55  C   UNK d   0     -40.392  21.691  -6.522  0.00  0.00     0.151 C 
BRANCH  55  56
ATOM     56  C   UNK d   0     -40.670  20.600  -7.468  0.00  0.00     0.143 C 
ATOM     57  O   UNK d   0     -39.821  19.740  -7.775  0.00  0.00    -0.650 OA
BRANCH  56  58
ATOM     58  O   UNK d   0     -41.942  20.541  -8.036  0.00  0.00    -0.776 OA
ATOM     59  H   UNK d   0     -42.254  21.414  -8.498  0.00  0.00     0.167 HD
ENDBRANCH  56  58
ENDBRANCH  55  56
ENDBRANCH  21  55
BRANCH  18  60
ATOM     60  C   UNK d   0     -44.477  21.484  -3.047  0.00  0.00     0.151 C 
BRANCH  60  61
ATOM     61  C   UNK d   0     -45.355  20.770  -3.987  0.00  0.00     0.143 C 
ATOM     62  O   UNK d   0     -46.358  20.112  -3.712  0.00  0.00    -0.650 OA
BRANCH  61  63
ATOM     63  O   UNK d   0     -44.983  20.867  -5.350  0.00  0.00    -0.776 OA
ATOM     64  H   UNK d   0     -44.398  21.616  -5.675  0.00  0.00     0.167 HD
ENDBRANCH  61  63
ENDBRANCH  60  61
ENDBRANCH  18  60
BRANCH  14  65
ATOM     65  C   UNK d   0     -45.304  20.094  -0.479  0.00  0.00     0.052 C 
BRANCH  65  66
ATOM     66  C   UNK d   0     -46.007  18.856  -0.045  0.00  0.00     0.115 C 
BRANCH  66  67
ATOM     67  C   UNK d   0     -46.599  17.993  -1.028  0.00  0.00     0.139 C 
ATOM     68  O   UNK d   0     -47.758  17.492  -0.786  0.00  0.00    -0.650 OA
BRANCH  67  69
ATOM     69  O   UNK d   0     -46.066  17.608  -2.258  0.00  0.00    -0.776 OA
ATOM     70  H   UNK d   0     -45.295  18.191  -2.614  0.00  0.00     0.167 HD
ENDBRANCH  67  69
ENDBRANCH  66  67
ENDBRANCH  65  66
ENDBRANCH  14  65
ENDBRANCH   6   7
ENDBRANCH   5   6
ENDBRANCH   2   5
TORSDOF 28
ENDMDL
MODEL 16
REMARK VINA RESULT:      -6.3      1.798      8.414
REMARK  28 active torsions:
REMARK  status: ('A' for Active; 'I' for Inactive)
REMARK    1  A    between atoms: C_2  and  O_3 
REMARK    2  A    between atoms: C_2  and  C_4 
REMARK    3  A    between atoms: C_4  and  C_5 
REMARK    4  A    between atoms: C_5  and  C_6 
REMARK    5  A    between atoms: C_7  and  C_8 
REMARK    6  A    between atoms: C_8  and  C_9 
REMARK    7  A    between atoms: C_9  and  O_11 
REMARK    8  A    between atoms: C_28  and  C_29 
REMARK    9  A    between atoms: C_29  and  C_30 
REMARK   10  A    between atoms: C_30  and  O_32 
REMARK   11  A    between atoms: C_33  and  C_34 
REMARK   12  A    between atoms: C_34  and  C_35 
REMARK   13  A    between atoms: C_35  and  C_36 
REMARK   14  A    between atoms: C_36  and  O_38 
REMARK   15  A    between atoms: C_39  and  C_40 
REMARK   16  A    between atoms: C_40  and  C_41 
REMARK   17  A    between atoms: C_41  and  C_42 
REMARK   18  A    between atoms: C_42  and  O_44 
REMARK   19  A    between atoms: C_45  and  C_46 
REMARK   20  A    between atoms: C_46  and  C_47 
REMARK   21  A    between atoms: C_47  and  O_49 
REMARK   22  A    between atoms: C_50  and  C_51 
REMARK   23  A    between atoms: C_51  and  C_52 
REMARK   24  A    between atoms: C_52  and  O_54 
REMARK   25  A    between atoms: C_55  and  C_56 
REMARK   26  A    between atoms: C_56  and  C_57 
REMARK   27  A    between atoms: C_57  and  C_58 
REMARK   28  A    between atoms: C_58  and  O_60 
ROOT
ATOM      1  O   UNK d   0     -48.376  22.039  -0.451  0.00  0.00    -0.650 OA
ATOM      2  C   UNK d   0     -47.686  21.060  -0.813  0.00  0.00     0.139 C 
ENDROOT
BRANCH   2   3
ATOM      3  O   UNK d   0     -48.224  20.141  -1.682  0.00  0.00    -0.776 OA
ATOM      4  H   UNK d   0     -48.668  20.437  -2.554  0.00  0.00     0.167 HD
ENDBRANCH   2   3
BRANCH   2   5
ATOM      5  C   UNK d   0     -46.295  20.895  -0.304  0.00  0.00     0.115 C 
BRANCH   5   6
ATOM      6  C   UNK d   0     -45.384  21.901  -0.951  0.00  0.00     0.052 C 
BRANCH   6   7
ATOM      7  C   UNK d   0     -44.105  21.283  -1.464  0.00  0.00    -0.020 A 
ATOM      8  C   UNK d   0     -43.748  21.103  -2.710  0.00  0.00    -0.011 A 
ATOM      9  C   UNK d   0     -42.442  20.465  -2.711  0.00  0.00     0.067 A 
ATOM     10  C   UNK d   0     -41.526  20.036  -3.684  0.00  0.00     0.062 C 
ATOM     11  N   UNK d   0     -42.082  20.287  -1.423  0.00  0.00    -0.248 NA
ATOM     12  C   UNK d   0     -40.184  19.691  -3.490  0.00  0.00     0.041 A 
ATOM     13  N   UNK d   0     -39.586  18.965  -2.527  0.00  0.00    -0.355 N 
ATOM     14  C   UNK d   0     -39.217  20.192  -4.381  0.00  0.00    -0.022 A 
ATOM     15  C   UNK d   0     -38.263  18.999  -2.779  0.00  0.00     0.042 A 
ATOM     16  H   UNK d   0     -40.089  18.423  -1.697  0.00  0.00     0.166 HD
ATOM     17  C   UNK d   0     -37.186  18.409  -2.088  0.00  0.00     0.062 C 
ATOM     18  C   UNK d   0     -37.994  19.760  -3.933  0.00  0.00    -0.013 A 
ATOM     19  C   UNK d   0     -36.946  18.367  -0.739  0.00  0.00     0.067 A 
ATOM     20  N   UNK d   0     -37.940  18.755   0.065  0.00  0.00    -0.248 NA
ATOM     21  C   UNK d   0     -35.826  18.004   0.113  0.00  0.00    -0.011 A 
ATOM     22  C   UNK d   0     -37.550  18.674   1.379  0.00  0.00     0.066 A 
ATOM     23  C   UNK d   0     -38.504  19.014   2.327  0.00  0.00     0.062 C 
ATOM     24  C   UNK d   0     -36.184  18.190   1.350  0.00  0.00    -0.020 A 
ATOM     25  C   UNK d   0     -39.851  19.345   2.112  0.00  0.00     0.041 A 
ATOM     26  N   UNK d   0     -40.444  20.079   1.164  0.00  0.00    -0.355 N 
ATOM     27  C   UNK d   0     -40.821  18.838   3.004  0.00  0.00    -0.022 A 
ATOM     28  C   UNK d   0     -41.762  20.053   1.418  0.00  0.00     0.042 A 
ATOM     29  H   UNK d   0     -39.935  20.632   0.336  0.00  0.00     0.166 HD
ATOM     30  C   UNK d   0     -42.843  20.644   0.745  0.00  0.00     0.062 C 
ATOM     31  C   UNK d   0     -42.033  19.280   2.572  0.00  0.00    -0.013 A 
ATOM     32  C   UNK d   0     -43.039  20.759  -0.622  0.00  0.00     0.066 A 
BRANCH   8  33
ATOM     33  C   UNK d   0     -44.519  21.470  -3.912  0.00  0.00     0.151 C 
BRANCH  33  34
ATOM     34  C   UNK d   0     -45.850  20.837  -3.952  0.00  0.00     0.143 C 
ATOM     35  O   UNK d   0     -46.859  21.497  -4.237  0.00  0.00    -0.650 OA
BRANCH  34  36
ATOM     36  O   UNK d   0     -45.969  19.497  -3.666  0.00  0.00    -0.776 OA
ATOM     37  H   UNK d   0     -45.144  18.921  -3.452  0.00  0.00     0.167 HD
ENDBRANCH  34  36
ENDBRANCH  33  34
ENDBRANCH   8  33
BRANCH  31  38
ATOM     38  C   UNK d   0     -43.370  18.979   3.206  0.00  0.00     0.151 C 
BRANCH  38  39
ATOM     39  C   UNK d   0     -43.778  17.601   3.028  0.00  0.00     0.143 C 
ATOM     40  O   UNK d   0     -43.503  16.953   2.004  0.00  0.00    -0.650 OA
BRANCH  39  41
ATOM     41  O   UNK d   0     -44.505  16.966   4.035  0.00  0.00    -0.776 OA
ATOM     42  H   UNK d   0     -45.102  16.184   3.749  0.00  0.00     0.167 HD
ENDBRANCH  39  41
ENDBRANCH  38  39
ENDBRANCH  31  38
BRANCH  27  43
ATOM     43  C   UNK d   0     -40.640  17.970   4.225  0.00  0.00     0.052 C 
BRANCH  43  44
ATOM     44  C   UNK d   0     -40.380  18.751   5.472  0.00  0.00     0.115 C 
BRANCH  44  45
ATOM     45  C   UNK d   0     -41.431  18.358   6.446  0.00  0.00     0.139 C 
ATOM     46  O   UNK d   0     -41.436  18.919   7.569  0.00  0.00    -0.650 OA
BRANCH  45  47
ATOM     47  O   UNK d   0     -42.395  17.414   6.165  0.00  0.00    -0.776 OA
ATOM     48  H   UNK d   0     -43.017  17.016   6.887  0.00  0.00     0.167 HD
ENDBRANCH  45  47
ENDBRANCH  44  45
ENDBRANCH  43  44
ENDBRANCH  27  43
BRANCH  24  49
ATOM     49  C   UNK d   0     -35.365  17.910   2.543  0.00  0.00     0.052 C 
BRANCH  49  50
ATOM     50  C   UNK d   0     -35.864  16.672   3.242  0.00  0.00     0.115 C 
BRANCH  50  51
ATOM     51  C   UNK d   0     -34.885  15.887   3.982  0.00  0.00     0.139 C 
ATOM     52  O   UNK d   0     -33.983  16.411   4.677  0.00  0.00    -0.650 OA
BRANCH  51  53
ATOM     53  O   UNK d   0     -34.933  14.502   3.926  0.00  0.00    -0.776 OA
ATOM     54  H   UNK d   0     -34.420  13.981   4.616  0.00  0.00     0.167 HD
ENDBRANCH  51  53
ENDBRANCH  50  51
ENDBRANCH  49  50
ENDBRANCH  24  49
BRANCH  21  55
ATOM     55  C   UNK d   0     -34.515  17.505  -0.400  0.00  0.00     0.151 C 
BRANCH  55  56
ATOM     56  C   UNK d   0     -34.186  16.173   0.131  0.00  0.00     0.143 C 
ATOM     57  O   UNK d   0     -34.996  15.226   0.127  0.00  0.00    -0.650 OA
BRANCH  56  58
ATOM     58  O   UNK d   0     -32.909  15.982   0.657  0.00  0.00    -0.776 OA
ATOM     59  H   UNK d   0     -32.397  16.852   0.888  0.00  0.00     0.167 HD
ENDBRANCH  56  58
ENDBRANCH  55  56
ENDBRANCH  21  55
BRANCH  18  60
ATOM     60  C   UNK d   0     -36.673  20.074  -4.590  0.00  0.00     0.151 C 
BRANCH  60  61
ATOM     61  C   UNK d   0     -36.145  21.255  -3.889  0.00  0.00     0.143 C 
ATOM     62  O   UNK d   0     -36.560  22.412  -3.968  0.00  0.00    -0.650 OA
BRANCH  61  63
ATOM     63  O   UNK d   0     -35.041  21.008  -3.038  0.00  0.00    -0.776 OA
ATOM     64  H   UNK d   0     -34.835  21.616  -2.266  0.00  0.00     0.167 HD
ENDBRANCH  61  63
ENDBRANCH  60  61
ENDBRANCH  18  60
BRANCH  14  65
ATOM     65  C   UNK d   0     -39.369  20.958  -5.664  0.00  0.00     0.052 C 
BRANCH  65  66
ATOM     66  C   UNK d   0     -39.574  20.078  -6.846  0.00  0.00     0.115 C 
BRANCH  66  67
ATOM     67  C   UNK d   0     -40.767  20.210  -7.633  0.00  0.00     0.139 C 
ATOM     68  O   UNK d   0     -40.783  19.702  -8.814  0.00  0.00    -0.650 OA
BRANCH  67  69
ATOM     69  O   UNK d   0     -41.960  20.839  -7.277  0.00  0.00    -0.776 OA
ATOM     70  H   UNK d   0     -42.727  20.765  -7.960  0.00  0.00     0.167 HD
ENDBRANCH  67  69
ENDBRANCH  66  67
ENDBRANCH  65  66
ENDBRANCH  14  65
ENDBRANCH   6   7
ENDBRANCH   5   6
ENDBRANCH   2   5
TORSDOF 28
ENDMDL
MODEL 17
REMARK VINA RESULT:      -6.3      2.180      8.777
REMARK  28 active torsions:
REMARK  status: ('A' for Active; 'I' for Inactive)
REMARK    1  A    between atoms: C_2  and  O_3 
REMARK    2  A    between atoms: C_2  and  C_4 
REMARK    3  A    between atoms: C_4  and  C_5 
REMARK    4  A    between atoms: C_5  and  C_6 
REMARK    5  A    between atoms: C_7  and  C_8 
REMARK    6  A    between atoms: C_8  and  C_9 
REMARK    7  A    between atoms: C_9  and  O_11 
REMARK    8  A    between atoms: C_28  and  C_29 
REMARK    9  A    between atoms: C_29  and  C_30 
REMARK   10  A    between atoms: C_30  and  O_32 
REMARK   11  A    between atoms: C_33  and  C_34 
REMARK   12  A    between atoms: C_34  and  C_35 
REMARK   13  A    between atoms: C_35  and  C_36 
REMARK   14  A    between atoms: C_36  and  O_38 
REMARK   15  A    between atoms: C_39  and  C_40 
REMARK   16  A    between atoms: C_40  and  C_41 
REMARK   17  A    between atoms: C_41  and  C_42 
REMARK   18  A    between atoms: C_42  and  O_44 
REMARK   19  A    between atoms: C_45  and  C_46 
REMARK   20  A    between atoms: C_46  and  C_47 
REMARK   21  A    between atoms: C_47  and  O_49 
REMARK   22  A    between atoms: C_50  and  C_51 
REMARK   23  A    between atoms: C_51  and  C_52 
REMARK   24  A    between atoms: C_52  and  O_54 
REMARK   25  A    between atoms: C_55  and  C_56 
REMARK   26  A    between atoms: C_56  and  C_57 
REMARK   27  A    between atoms: C_57  and  C_58 
REMARK   28  A    between atoms: C_58  and  O_60 
ROOT
ATOM      1  O   UNK d   0     -34.036  19.471   2.153  0.00  0.00    -0.650 OA
ATOM      2  C   UNK d   0     -34.539  18.837   1.200  0.00  0.00     0.139 C 
ENDROOT
BRANCH   2   3
ATOM      3  O   UNK d   0     -33.727  18.388   0.186  0.00  0.00    -0.776 OA
ATOM      4  H   UNK d   0     -33.004  17.687   0.360  0.00  0.00     0.167 HD
ENDBRANCH   2   3
BRANCH   2   5
ATOM      5  C   UNK d   0     -36.006  18.573   1.167  0.00  0.00     0.115 C 
BRANCH   5   6
ATOM      6  C   UNK d   0     -36.386  17.922  -0.135  0.00  0.00     0.052 C 
BRANCH   6   7
ATOM      7  C   UNK d   0     -37.422  18.712  -0.899  0.00  0.00    -0.020 A 
ATOM      8  C   UNK d   0     -37.217  19.588  -1.849  0.00  0.00    -0.011 A 
ATOM      9  C   UNK d   0     -38.512  20.092  -2.275  0.00  0.00     0.067 A 
ATOM     10  C   UNK d   0     -38.977  21.004  -3.236  0.00  0.00     0.062 C 
ATOM     11  N   UNK d   0     -39.449  19.473  -1.527  0.00  0.00    -0.248 NA
ATOM     12  C   UNK d   0     -40.290  21.156  -3.694  0.00  0.00     0.041 A 
ATOM     13  N   UNK d   0     -41.463  21.169  -3.033  0.00  0.00    -0.355 N 
ATOM     14  C   UNK d   0     -40.520  21.267  -5.077  0.00  0.00    -0.022 A 
ATOM     15  C   UNK d   0     -42.432  21.277  -3.962  0.00  0.00     0.042 A 
ATOM     16  H   UNK d   0     -41.603  21.122  -1.931  0.00  0.00     0.166 HD
ATOM     17  C   UNK d   0     -43.832  21.337  -3.818  0.00  0.00     0.062 C 
ATOM     18  C   UNK d   0     -41.879  21.341  -5.256  0.00  0.00    -0.013 A 
ATOM     19  C   UNK d   0     -44.652  20.574  -3.027  0.00  0.00     0.067 A 
ATOM     20  N   UNK d   0     -44.060  19.796  -2.117  0.00  0.00    -0.248 NA
ATOM     21  C   UNK d   0     -46.084  20.355  -2.911  0.00  0.00    -0.011 A 
ATOM     22  C   UNK d   0     -45.001  19.083  -1.415  0.00  0.00     0.066 A 
ATOM     23  C   UNK d   0     -44.524  18.259  -0.407  0.00  0.00     0.062 C 
ATOM     24  C   UNK d   0     -46.281  19.478  -1.969  0.00  0.00    -0.020 A 
ATOM     25  C   UNK d   0     -43.202  18.130   0.046  0.00  0.00     0.041 A 
ATOM     26  N   UNK d   0     -42.037  18.102  -0.612  0.00  0.00    -0.355 N 
ATOM     27  C   UNK d   0     -42.972  18.023   1.435  0.00  0.00    -0.022 A 
ATOM     28  C   UNK d   0     -41.070  17.985   0.312  0.00  0.00     0.042 A 
ATOM     29  H   UNK d   0     -41.899  18.138  -1.720  0.00  0.00     0.166 HD
ATOM     30  C   UNK d   0     -39.674  17.915   0.183  0.00  0.00     0.062 C 
ATOM     31  C   UNK d   0     -41.625  17.932   1.612  0.00  0.00    -0.013 A 
ATOM     32  C   UNK d   0     -38.858  18.630  -0.680  0.00  0.00     0.066 A 
BRANCH   8  33
ATOM     33  C   UNK d   0     -35.915  20.008  -2.400  0.00  0.00     0.151 C 
BRANCH  33  34
ATOM     34  C   UNK d   0     -35.241  18.935  -3.152  0.00  0.00     0.143 C 
ATOM     35  O   UNK d   0     -34.094  18.573  -2.854  0.00  0.00    -0.650 OA
BRANCH  34  36
ATOM     36  O   UNK d   0     -35.896  18.329  -4.199  0.00  0.00    -0.776 OA
ATOM     37  H   UNK d   0     -36.442  18.879  -4.877  0.00  0.00     0.167 HD
ENDBRANCH  34  36
ENDBRANCH  33  34
ENDBRANCH   8  33
BRANCH  31  38
ATOM     38  C   UNK d   0     -40.906  17.814   2.936  0.00  0.00     0.151 C 
BRANCH  38  39
ATOM     39  C   UNK d   0     -41.013  16.493   3.517  0.00  0.00     0.143 C 
ATOM     40  O   UNK d   0     -41.055  15.462   2.823  0.00  0.00    -0.650 OA
BRANCH  39  41
ATOM     41  O   UNK d   0     -41.071  16.356   4.904  0.00  0.00    -0.776 OA
ATOM     42  H   UNK d   0     -41.930  16.674   5.364  0.00  0.00     0.167 HD
ENDBRANCH  39  41
ENDBRANCH  38  39
ENDBRANCH  31  38
BRANCH  27  43
ATOM     43  C   UNK d   0     -43.963  18.003   2.572  0.00  0.00     0.052 C 
BRANCH  43  44
ATOM     44  C   UNK d   0     -44.436  19.364   2.967  0.00  0.00     0.115 C 
BRANCH  44  45
ATOM     45  C   UNK d   0     -45.908  19.265   3.150  0.00  0.00     0.139 C 
ATOM     46  O   UNK d   0     -46.648  19.629   2.203  0.00  0.00    -0.650 OA
BRANCH  45  47
ATOM     47  O   UNK d   0     -46.486  18.788   4.306  0.00  0.00    -0.776 OA
ATOM     48  H   UNK d   0     -46.949  19.402   4.996  0.00  0.00     0.167 HD
ENDBRANCH  45  47
ENDBRANCH  44  45
ENDBRANCH  43  44
ENDBRANCH  27  43
BRANCH  24  49
ATOM     49  C   UNK d   0     -47.589  18.994  -1.493  0.00  0.00     0.052 C 
BRANCH  49  50
ATOM     50  C   UNK d   0     -47.645  17.489  -1.558  0.00  0.00     0.115 C 
BRANCH  50  51
ATOM     51  C   UNK d   0     -47.925  16.889  -2.856  0.00  0.00     0.139 C 
ATOM     52  O   UNK d   0     -49.021  16.343  -3.126  0.00  0.00    -0.650 OA
BRANCH  51  53
ATOM     53  O   UNK d   0     -46.955  16.910  -3.845  0.00  0.00    -0.776 OA
ATOM     54  H   UNK d   0     -46.867  16.106  -4.442  0.00  0.00     0.167 HD
ENDBRANCH  51  53
ENDBRANCH  50  51
ENDBRANCH  49  50
ENDBRANCH  24  49
BRANCH  21  55
ATOM     55  C   UNK d   0     -47.106  21.047  -3.750  0.00  0.00     0.151 C 
BRANCH  55  56
ATOM     56  C   UNK d   0     -47.136  20.525  -5.125  0.00  0.00     0.143 C 
ATOM     57  O   UNK d   0     -47.648  19.426  -5.418  0.00  0.00    -0.650 OA
BRANCH  56  58
ATOM     58  O   UNK d   0     -46.565  21.305  -6.129  0.00  0.00    -0.776 OA
ATOM     59  H   UNK d   0     -45.535  21.400  -6.074  0.00  0.00     0.167 HD
ENDBRANCH  56  58
ENDBRANCH  55  56
ENDBRANCH  21  55
BRANCH  18  60
ATOM     60  C   UNK d   0     -42.570  21.461  -6.591  0.00  0.00     0.151 C 
BRANCH  60  61
ATOM     61  C   UNK d   0     -42.552  22.893  -6.928  0.00  0.00     0.143 C 
ATOM     62  O   UNK d   0     -43.069  23.812  -6.291  0.00  0.00    -0.650 OA
BRANCH  61  63
ATOM     63  O   UNK d   0     -41.859  23.224  -8.117  0.00  0.00    -0.776 OA
ATOM     64  H   UNK d   0     -41.385  24.104  -8.213  0.00  0.00     0.167 HD
ENDBRANCH  61  63
ENDBRANCH  60  61
ENDBRANCH  18  60
BRANCH  14  65
ATOM     65  C   UNK d   0     -39.559  21.406  -6.223  0.00  0.00     0.052 C 
BRANCH  65  66
ATOM     66  C   UNK d   0     -39.343  20.131  -6.959  0.00  0.00     0.115 C 
BRANCH  66  67
ATOM     67  C   UNK d   0     -39.973  19.930  -8.234  0.00  0.00     0.139 C 
ATOM     68  O   UNK d   0     -39.517  20.571  -9.252  0.00  0.00    -0.650 OA
BRANCH  67  69
ATOM     69  O   UNK d   0     -41.055  19.102  -8.530  0.00  0.00    -0.776 OA
ATOM     70  H   UNK d   0     -41.769  19.504  -9.155  0.00  0.00     0.167 HD
ENDBRANCH  67  69
ENDBRANCH  66  67
ENDBRANCH  65  66
ENDBRANCH  14  65
ENDBRANCH   6   7
ENDBRANCH   5   6
ENDBRANCH   2   5
TORSDOF 28
ENDMDL
MODEL 18
REMARK VINA RESULT:      -6.3      1.974     10.887
REMARK  28 active torsions:
REMARK  status: ('A' for Active; 'I' for Inactive)
REMARK    1  A    between atoms: C_2  and  O_3 
REMARK    2  A    between atoms: C_2  and  C_4 
REMARK    3  A    between atoms: C_4  and  C_5 
REMARK    4  A    between atoms: C_5  and  C_6 
REMARK    5  A    between atoms: C_7  and  C_8 
REMARK    6  A    between atoms: C_8  and  C_9 
REMARK    7  A    between atoms: C_9  and  O_11 
REMARK    8  A    between atoms: C_28  and  C_29 
REMARK    9  A    between atoms: C_29  and  C_30 
REMARK   10  A    between atoms: C_30  and  O_32 
REMARK   11  A    between atoms: C_33  and  C_34 
REMARK   12  A    between atoms: C_34  and  C_35 
REMARK   13  A    between atoms: C_35  and  C_36 
REMARK   14  A    between atoms: C_36  and  O_38 
REMARK   15  A    between atoms: C_39  and  C_40 
REMARK   16  A    between atoms: C_40  and  C_41 
REMARK   17  A    between atoms: C_41  and  C_42 
REMARK   18  A    between atoms: C_42  and  O_44 
REMARK   19  A    between atoms: C_45  and  C_46 
REMARK   20  A    between atoms: C_46  and  C_47 
REMARK   21  A    between atoms: C_47  and  O_49 
REMARK   22  A    between atoms: C_50  and  C_51 
REMARK   23  A    between atoms: C_51  and  C_52 
REMARK   24  A    between atoms: C_52  and  O_54 
REMARK   25  A    between atoms: C_55  and  C_56 
REMARK   26  A    between atoms: C_56  and  C_57 
REMARK   27  A    between atoms: C_57  and  C_58 
REMARK   28  A    between atoms: C_58  and  O_60 
ROOT
ATOM      1  O   UNK d   0     -34.007  19.788  -2.370  0.00  0.00    -0.650 OA
ATOM      2  C   UNK d   0     -34.658  19.244  -3.289  0.00  0.00     0.139 C 
ENDROOT
BRANCH   2   3
ATOM      3  O   UNK d   0     -34.646  17.875  -3.404  0.00  0.00    -0.776 OA
ATOM      4  H   UNK d   0     -34.631  17.422  -4.321  0.00  0.00     0.167 HD
ENDBRANCH   2   3
BRANCH   2   5
ATOM      5  C   UNK d   0     -35.437  20.077  -4.249  0.00  0.00     0.115 C 
BRANCH   5   6
ATOM      6  C   UNK d   0     -36.652  19.325  -4.719  0.00  0.00     0.052 C 
BRANCH   6   7
ATOM      7  C   UNK d   0     -37.904  19.717  -3.972  0.00  0.00    -0.020 A 
ATOM      8  C   UNK d   0     -38.884  20.472  -4.398  0.00  0.00    -0.011 A 
ATOM      9  C   UNK d   0     -39.863  20.575  -3.328  0.00  0.00     0.067 A 
ATOM     10  C   UNK d   0     -41.109  21.197  -3.153  0.00  0.00     0.062 C 
ATOM     11  N   UNK d   0     -39.395  19.857  -2.286  0.00  0.00    -0.248 NA
ATOM     12  C   UNK d   0     -42.043  20.953  -2.139  0.00  0.00     0.041 A 
ATOM     13  N   UNK d   0     -41.885  20.771  -0.814  0.00  0.00    -0.355 N 
ATOM     14  C   UNK d   0     -43.398  20.806  -2.483  0.00  0.00    -0.022 A 
ATOM     15  C   UNK d   0     -43.105  20.503  -0.311  0.00  0.00     0.042 A 
ATOM     16  H   UNK d   0     -40.933  20.848  -0.243  0.00  0.00     0.166 HD
ATOM     17  C   UNK d   0     -43.508  20.235   1.013  0.00  0.00     0.062 C 
ATOM     18  C   UNK d   0     -44.079  20.516  -1.327  0.00  0.00    -0.013 A 
ATOM     19  C   UNK d   0     -42.923  19.414   1.943  0.00  0.00     0.067 A 
ATOM     20  N   UNK d   0     -41.707  18.944   1.656  0.00  0.00    -0.248 NA
ATOM     21  C   UNK d   0     -43.299  18.867   3.236  0.00  0.00    -0.011 A 
ATOM     22  C   UNK d   0     -41.260  18.129   2.667  0.00  0.00     0.066 A 
ATOM     23  C   UNK d   0     -39.986  17.600   2.514  0.00  0.00     0.062 C 
ATOM     24  C   UNK d   0     -42.322  18.113   3.652  0.00  0.00    -0.020 A 
ATOM     25  C   UNK d   0     -39.060  17.868   1.495  0.00  0.00     0.041 A 
ATOM     26  N   UNK d   0     -39.214  18.035   0.176  0.00  0.00    -0.355 N 
ATOM     27  C   UNK d   0     -37.700  18.020   1.842  0.00  0.00    -0.022 A 
ATOM     28  C   UNK d   0     -37.998  18.293  -0.330  0.00  0.00     0.042 A 
ATOM     29  H   UNK d   0     -40.170  17.946  -0.398  0.00  0.00     0.166 HD
ATOM     30  C   UNK d   0     -37.581  18.552  -1.645  0.00  0.00     0.062 C 
ATOM     31  C   UNK d   0     -37.021  18.290   0.694  0.00  0.00    -0.013 A 
ATOM     32  C   UNK d   0     -38.220  19.315  -2.610  0.00  0.00     0.066 A 
BRANCH   8  33
ATOM     33  C   UNK d   0     -38.995  21.117  -5.719  0.00  0.00     0.151 C 
BRANCH  33  34
ATOM     34  C   UNK d   0     -39.974  20.453  -6.598  0.00  0.00     0.143 C 
ATOM     35  O   UNK d   0     -41.143  20.858  -6.670  0.00  0.00    -0.650 OA
BRANCH  34  36
ATOM     36  O   UNK d   0     -39.581  19.367  -7.347  0.00  0.00    -0.776 OA
ATOM     37  H   UNK d   0     -39.680  19.361  -8.372  0.00  0.00     0.167 HD
ENDBRANCH  34  36
ENDBRANCH  33  34
ENDBRANCH   8  33
BRANCH  31  38
ATOM     38  C   UNK d   0     -35.536  18.544   0.574  0.00  0.00     0.151 C 
BRANCH  38  39
ATOM     39  C   UNK d   0     -34.787  17.349   0.248  0.00  0.00     0.143 C 
ATOM     40  O   UNK d   0     -35.175  16.533  -0.606  0.00  0.00    -0.650 OA
BRANCH  39  41
ATOM     41  O   UNK d   0     -33.585  17.092   0.906  0.00  0.00    -0.776 OA
ATOM     42  H   UNK d   0     -33.127  17.889   1.359  0.00  0.00     0.167 HD
ENDBRANCH  39  41
ENDBRANCH  38  39
ENDBRANCH  31  38
BRANCH  27  43
ATOM     43  C   UNK d   0     -37.038  17.919   3.194  0.00  0.00     0.052 C 
BRANCH  43  44
ATOM     44  C   UNK d   0     -36.950  16.517   3.705  0.00  0.00     0.115 C 
BRANCH  44  45
ATOM     45  C   UNK d   0     -35.505  16.174   3.755  0.00  0.00     0.139 C 
ATOM     46  O   UNK d   0     -35.188  14.969   3.912  0.00  0.00    -0.650 OA
BRANCH  45  47
ATOM     47  O   UNK d   0     -34.508  17.118   3.631  0.00  0.00    -0.776 OA
ATOM     48  H   UNK d   0     -34.211  17.725   4.411  0.00  0.00     0.167 HD
ENDBRANCH  45  47
ENDBRANCH  44  45
ENDBRANCH  43  44
ENDBRANCH  27  43
BRANCH  24  49
ATOM     49  C   UNK d   0     -42.268  17.393   4.937  0.00  0.00     0.052 C 
BRANCH  49  50
ATOM     50  C   UNK d   0     -42.644  18.313   6.070  0.00  0.00     0.115 C 
BRANCH  50  51
ATOM     51  C   UNK d   0     -41.556  18.883   6.853  0.00  0.00     0.139 C 
ATOM     52  O   UNK d   0     -40.359  18.834   6.484  0.00  0.00    -0.650 OA
BRANCH  51  53
ATOM     53  O   UNK d   0     -41.833  19.506   8.060  0.00  0.00    -0.776 OA
ATOM     54  H   UNK d   0     -41.517  20.451   8.191  0.00  0.00     0.167 HD
ENDBRANCH  51  53
ENDBRANCH  50  51
ENDBRANCH  49  50
ENDBRANCH  24  49
BRANCH  21  55
ATOM     55  C   UNK d   0     -44.591  19.159   3.923  0.00  0.00     0.151 C 
BRANCH  55  56
ATOM     56  C   UNK d   0     -45.659  18.238   3.505  0.00  0.00     0.143 C 
ATOM     57  O   UNK d   0     -46.358  18.431   2.491  0.00  0.00    -0.650 OA
BRANCH  56  58
ATOM     58  O   UNK d   0     -45.883  17.106   4.287  0.00  0.00    -0.776 OA
ATOM     59  H   UNK d   0     -45.077  16.458   4.358  0.00  0.00     0.167 HD
ENDBRANCH  56  58
ENDBRANCH  55  56
ENDBRANCH  21  55
BRANCH  18  60
ATOM     60  C   UNK d   0     -45.565  20.270  -1.237  0.00  0.00     0.151 C 
BRANCH  60  61
ATOM     61  C   UNK d   0     -45.756  18.842  -1.532  0.00  0.00     0.143 C 
ATOM     62  O   UNK d   0     -45.559  17.894  -0.771  0.00  0.00    -0.650 OA
BRANCH  61  63
ATOM     63  O   UNK d   0     -46.219  18.553  -2.838  0.00  0.00    -0.776 OA
ATOM     64  H   UNK d   0     -45.950  17.707  -3.309  0.00  0.00     0.167 HD
ENDBRANCH  61  63
ENDBRANCH  60  61
ENDBRANCH  18  60
BRANCH  14  65
ATOM     65  C   UNK d   0     -44.106  21.013  -3.792  0.00  0.00     0.052 C 
BRANCH  65  66
ATOM     66  C   UNK d   0     -44.501  22.428  -4.022  0.00  0.00     0.115 C 
BRANCH  66  67
ATOM     67  C   UNK d   0     -45.881  22.809  -3.910  0.00  0.00     0.139 C 
ATOM     68  O   UNK d   0     -46.778  22.010  -4.369  0.00  0.00    -0.650 OA
BRANCH  67  69
ATOM     69  O   UNK d   0     -46.401  23.975  -3.349  0.00  0.00    -0.776 OA
ATOM     70  H   UNK d   0     -47.348  23.896  -2.950  0.00  0.00     0.167 HD
ENDBRANCH  67  69
ENDBRANCH  66  67
ENDBRANCH  65  66
ENDBRANCH  14  65
ENDBRANCH   6   7
ENDBRANCH   5   6
ENDBRANCH   2   5
TORSDOF 28
ENDMDL
MODEL 19
REMARK VINA RESULT:      -6.3     28.057     31.319
REMARK  28 active torsions:
REMARK  status: ('A' for Active; 'I' for Inactive)
REMARK    1  A    between atoms: C_2  and  O_3 
REMARK    2  A    between atoms: C_2  and  C_4 
REMARK    3  A    between atoms: C_4  and  C_5 
REMARK    4  A    between atoms: C_5  and  C_6 
REMARK    5  A    between atoms: C_7  and  C_8 
REMARK    6  A    between atoms: C_8  and  C_9 
REMARK    7  A    between atoms: C_9  and  O_11 
REMARK    8  A    between atoms: C_28  and  C_29 
REMARK    9  A    between atoms: C_29  and  C_30 
REMARK   10  A    between atoms: C_30  and  O_32 
REMARK   11  A    between atoms: C_33  and  C_34 
REMARK   12  A    between atoms: C_34  and  C_35 
REMARK   13  A    between atoms: C_35  and  C_36 
REMARK   14  A    between atoms: C_36  and  O_38 
REMARK   15  A    between atoms: C_39  and  C_40 
REMARK   16  A    between atoms: C_40  and  C_41 
REMARK   17  A    between atoms: C_41  and  C_42 
REMARK   18  A    between atoms: C_42  and  O_44 
REMARK   19  A    between atoms: C_45  and  C_46 
REMARK   20  A    between atoms: C_46  and  C_47 
REMARK   21  A    between atoms: C_47  and  O_49 
REMARK   22  A    between atoms: C_50  and  C_51 
REMARK   23  A    between atoms: C_51  and  C_52 
REMARK   24  A    between atoms: C_52  and  O_54 
REMARK   25  A    between atoms: C_55  and  C_56 
REMARK   26  A    between atoms: C_56  and  C_57 
REMARK   27  A    between atoms: C_57  and  C_58 
REMARK   28  A    between atoms: C_58  and  O_60 
ROOT
ATOM      1  O   UNK d   0     -46.051  -7.028 -13.606  0.00  0.00    -0.650 OA
ATOM      2  C   UNK d   0     -46.639  -7.381 -12.560  0.00  0.00     0.139 C 
ENDROOT
BRANCH   2   3
ATOM      3  O   UNK d   0     -47.220  -6.427 -11.759  0.00  0.00    -0.776 OA
ATOM      4  H   UNK d   0     -47.415  -5.488 -12.113  0.00  0.00     0.167 HD
ENDBRANCH   2   3
BRANCH   2   5
ATOM      5  C   UNK d   0     -46.707  -8.823 -12.190  0.00  0.00     0.115 C 
BRANCH   5   6
ATOM      6  C   UNK d   0     -45.624  -9.154 -11.199  0.00  0.00     0.052 C 
BRANCH   6   7
ATOM      7  C   UNK d   0     -46.144  -9.914 -10.002  0.00  0.00    -0.020 A 
ATOM      8  C   UNK d   0     -45.983 -11.183  -9.731  0.00  0.00    -0.011 A 
ATOM      9  C   UNK d   0     -46.668 -11.461  -8.480  0.00  0.00     0.067 A 
ATOM     10  C   UNK d   0     -46.856 -12.582  -7.655  0.00  0.00     0.062 C 
ATOM     11  N   UNK d   0     -47.224 -10.305  -8.061  0.00  0.00    -0.248 NA
ATOM     12  C   UNK d   0     -47.317 -12.594  -6.334  0.00  0.00     0.041 A 
ATOM     13  N   UNK d   0     -48.319 -11.919  -5.739  0.00  0.00    -0.355 N 
ATOM     14  C   UNK d   0     -46.640 -13.380  -5.384  0.00  0.00    -0.022 A 
ATOM     15  C   UNK d   0     -48.290 -12.251  -4.434  0.00  0.00     0.042 A 
ATOM     16  H   UNK d   0     -49.044 -11.237  -6.235  0.00  0.00     0.166 HD
ATOM     17  C   UNK d   0     -49.112 -11.835  -3.368  0.00  0.00     0.062 C 
ATOM     18  C   UNK d   0     -47.250 -13.164  -4.174  0.00  0.00    -0.013 A 
ATOM     19  C   UNK d   0     -49.548 -10.573  -3.056  0.00  0.00     0.067 A 
ATOM     20  N   UNK d   0     -49.347  -9.621  -3.970  0.00  0.00    -0.248 NA
ATOM     21  C   UNK d   0     -50.200  -9.944  -1.920  0.00  0.00    -0.011 A 
ATOM     22  C   UNK d   0     -49.819  -8.415  -3.514  0.00  0.00     0.066 A 
ATOM     23  C   UNK d   0     -49.708  -7.340  -4.384  0.00  0.00     0.062 C 
ATOM     24  C   UNK d   0     -50.352  -8.680  -2.192  0.00  0.00    -0.020 A 
ATOM     25  C   UNK d   0     -49.254  -7.351  -5.712  0.00  0.00     0.041 A 
ATOM     26  N   UNK d   0     -48.249  -8.010  -6.300  0.00  0.00    -0.355 N 
ATOM     27  C   UNK d   0     -49.937  -6.566  -6.666  0.00  0.00    -0.022 A 
ATOM     28  C   UNK d   0     -48.270  -7.675  -7.600  0.00  0.00     0.042 A 
ATOM     29  H   UNK d   0     -47.514  -8.687  -5.799  0.00  0.00     0.166 HD
ATOM     30  C   UNK d   0     -47.453  -8.073  -8.670  0.00  0.00     0.062 C 
ATOM     31  C   UNK d   0     -49.321  -6.765  -7.863  0.00  0.00    -0.013 A 
ATOM     32  C   UNK d   0     -46.944  -9.335  -8.933  0.00  0.00     0.066 A 
BRANCH   8  33
ATOM     33  C   UNK d   0     -45.248 -12.175 -10.538  0.00  0.00     0.151 C 
BRANCH  33  34
ATOM     34  C   UNK d   0     -44.236 -12.908  -9.758  0.00  0.00     0.143 C 
ATOM     35  O   UNK d   0     -44.348 -14.125  -9.554  0.00  0.00    -0.650 OA
BRANCH  34  36
ATOM     36  O   UNK d   0     -43.153 -12.229  -9.249  0.00  0.00    -0.776 OA
ATOM     37  H   UNK d   0     -42.422 -12.715  -8.711  0.00  0.00     0.167 HD
ENDBRANCH  34  36
ENDBRANCH  33  34
ENDBRANCH   8  33
BRANCH  31  38
ATOM     38  C   UNK d   0     -49.714  -6.140  -9.182  0.00  0.00     0.151 C 
BRANCH  38  39
ATOM     39  C   UNK d   0     -50.475  -7.039 -10.024  0.00  0.00     0.143 C 
ATOM     40  O   UNK d   0     -51.563  -7.524  -9.667  0.00  0.00    -0.650 OA
BRANCH  39  41
ATOM     41  O   UNK d   0     -49.983  -7.380 -11.283  0.00  0.00    -0.776 OA
ATOM     42  H   UNK d   0     -50.666  -7.712 -11.971  0.00  0.00     0.167 HD
ENDBRANCH  39  41
ENDBRANCH  38  39
ENDBRANCH  31  38
BRANCH  27  43
ATOM     43  C   UNK d   0     -51.123  -5.653  -6.483  0.00  0.00     0.052 C 
BRANCH  43  44
ATOM     44  C   UNK d   0     -50.776  -4.357  -5.824  0.00  0.00     0.115 C 
BRANCH  44  45
ATOM     45  C   UNK d   0     -51.592  -4.280  -4.584  0.00  0.00     0.139 C 
ATOM     46  O   UNK d   0     -52.842  -4.239  -4.699  0.00  0.00    -0.650 OA
BRANCH  45  47
ATOM     47  O   UNK d   0     -51.035  -4.257  -3.323  0.00  0.00    -0.776 OA
ATOM     48  H   UNK d   0     -50.645  -3.401  -2.898  0.00  0.00     0.167 HD
ENDBRANCH  45  47
ENDBRANCH  44  45
ENDBRANCH  43  44
ENDBRANCH  27  43
BRANCH  24  49
ATOM     49  C   UNK d   0     -51.004  -7.678  -1.331  0.00  0.00     0.052 C 
BRANCH  49  50
ATOM     50  C   UNK d   0     -52.387  -7.368  -1.843  0.00  0.00     0.115 C 
BRANCH  50  51
ATOM     51  C   UNK d   0     -53.137  -6.332  -1.145  0.00  0.00     0.139 C 
ATOM     52  O   UNK d   0     -53.523  -6.459   0.041  0.00  0.00    -0.650 OA
BRANCH  51  53
ATOM     53  O   UNK d   0     -53.450  -5.151  -1.800  0.00  0.00    -0.776 OA
ATOM     54  H   UNK d   0     -54.268  -4.647  -1.508  0.00  0.00     0.167 HD
ENDBRANCH  51  53
ENDBRANCH  50  51
ENDBRANCH  49  50
ENDBRANCH  24  49
BRANCH  21  55
ATOM     55  C   UNK d   0     -50.607 -10.673  -0.682  0.00  0.00     0.151 C 
BRANCH  55  56
ATOM     56  C   UNK d   0     -49.510 -10.758   0.294  0.00  0.00     0.143 C 
ATOM     57  O   UNK d   0     -49.683 -11.118   1.475  0.00  0.00    -0.650 OA
BRANCH  56  58
ATOM     58  O   UNK d   0     -48.229 -10.417  -0.138  0.00  0.00    -0.776 OA
ATOM     59  H   UNK d   0     -47.973 -10.782  -1.073  0.00  0.00     0.167 HD
ENDBRANCH  56  58
ENDBRANCH  55  56
ENDBRANCH  21  55
BRANCH  18  60
ATOM     60  C   UNK d   0     -46.838 -13.805  -2.871  0.00  0.00     0.151 C 
BRANCH  60  61
ATOM     61  C   UNK d   0     -45.802 -12.931  -2.301  0.00  0.00     0.143 C 
ATOM     62  O   UNK d   0     -44.582 -13.058  -2.408  0.00  0.00    -0.650 OA
BRANCH  61  63
ATOM     63  O   UNK d   0     -46.287 -11.830  -1.554  0.00  0.00    -0.776 OA
ATOM     64  H   UNK d   0     -47.265 -11.736  -1.346  0.00  0.00     0.167 HD
ENDBRANCH  61  63
ENDBRANCH  60  61
ENDBRANCH  18  60
BRANCH  14  65
ATOM     65  C   UNK d   0     -45.534 -14.384  -5.550  0.00  0.00     0.052 C 
BRANCH  65  66
ATOM     66  C   UNK d   0     -44.237 -13.762  -5.927  0.00  0.00     0.115 C 
BRANCH  66  67
ATOM     67  C   UNK d   0     -43.033 -14.163  -5.254  0.00  0.00     0.139 C 
ATOM     68  O   UNK d   0     -41.907 -13.965  -5.841  0.00  0.00    -0.650 OA
BRANCH  67  69
ATOM     69  O   UNK d   0     -42.916 -14.762  -4.000  0.00  0.00    -0.776 OA
ATOM     70  H   UNK d   0     -42.627 -15.750  -4.001  0.00  0.00     0.167 HD
ENDBRANCH  67  69
ENDBRANCH  66  67
ENDBRANCH  65  66
ENDBRANCH  14  65
ENDBRANCH   6   7
ENDBRANCH   5   6
ENDBRANCH   2   5
TORSDOF 28
ENDMDL
MODEL 20
REMARK VINA RESULT:      -6.3      1.663      7.147
REMARK  28 active torsions:
REMARK  status: ('A' for Active; 'I' for Inactive)
REMARK    1  A    between atoms: C_2  and  O_3 
REMARK    2  A    between atoms: C_2  and  C_4 
REMARK    3  A    between atoms: C_4  and  C_5 
REMARK    4  A    between atoms: C_5  and  C_6 
REMARK    5  A    between atoms: C_7  and  C_8 
REMARK    6  A    between atoms: C_8  and  C_9 
REMARK    7  A    between atoms: C_9  and  O_11 
REMARK    8  A    between atoms: C_28  and  C_29 
REMARK    9  A    between atoms: C_29  and  C_30 
REMARK   10  A    between atoms: C_30  and  O_32 
REMARK   11  A    between atoms: C_33  and  C_34 
REMARK   12  A    between atoms: C_34  and  C_35 
REMARK   13  A    between atoms: C_35  and  C_36 
REMARK   14  A    between atoms: C_36  and  O_38 
REMARK   15  A    between atoms: C_39  and  C_40 
REMARK   16  A    between atoms: C_40  and  C_41 
REMARK   17  A    between atoms: C_41  and  C_42 
REMARK   18  A    between atoms: C_42  and  O_44 
REMARK   19  A    between atoms: C_45  and  C_46 
REMARK   20  A    between atoms: C_46  and  C_47 
REMARK   21  A    between atoms: C_47  and  O_49 
REMARK   22  A    between atoms: C_50  and  C_51 
REMARK   23  A    between atoms: C_51  and  C_52 
REMARK   24  A    between atoms: C_52  and  O_54 
REMARK   25  A    between atoms: C_55  and  C_56 
REMARK   26  A    between atoms: C_56  and  C_57 
REMARK   27  A    between atoms: C_57  and  C_58 
REMARK   28  A    between atoms: C_58  and  O_60 
ROOT
ATOM      1  O   UNK d   0     -41.215  18.022   6.751  0.00  0.00    -0.650 OA
ATOM      2  C   UNK d   0     -40.664  18.807   5.947  0.00  0.00     0.139 C 
ENDROOT
BRANCH   2   3
ATOM      3  O   UNK d   0     -41.082  20.115   5.889  0.00  0.00    -0.776 OA
ATOM      4  H   UNK d   0     -40.765  20.800   6.578  0.00  0.00     0.167 HD
ENDBRANCH   2   3
BRANCH   2   5
ATOM      5  C   UNK d   0     -39.567  18.323   5.062  0.00  0.00     0.115 C 
BRANCH   5   6
ATOM      6  C   UNK d   0     -40.021  17.117   4.286  0.00  0.00     0.052 C 
BRANCH   6   7
ATOM      7  C   UNK d   0     -40.442  17.458   2.876  0.00  0.00    -0.020 A 
ATOM      8  C   UNK d   0     -41.642  17.384   2.361  0.00  0.00    -0.011 A 
ATOM      9  C   UNK d   0     -41.557  17.806   0.973  0.00  0.00     0.067 A 
ATOM     10  C   UNK d   0     -42.457  17.970  -0.092  0.00  0.00     0.062 C 
ATOM     11  N   UNK d   0     -40.267  18.113   0.725  0.00  0.00    -0.248 NA
ATOM     12  C   UNK d   0     -42.234  18.657  -1.291  0.00  0.00     0.041 A 
ATOM     13  N   UNK d   0     -41.169  18.681  -2.114  0.00  0.00    -0.355 N 
ATOM     14  C   UNK d   0     -43.223  19.540  -1.763  0.00  0.00    -0.022 A 
ATOM     15  C   UNK d   0     -41.453  19.561  -3.092  0.00  0.00     0.042 A 
ATOM     16  H   UNK d   0     -40.243  18.072  -2.017  0.00  0.00     0.166 HD
ATOM     17  C   UNK d   0     -40.692  19.966  -4.207  0.00  0.00     0.062 C 
ATOM     18  C   UNK d   0     -42.732  20.121  -2.906  0.00  0.00    -0.013 A 
ATOM     19  C   UNK d   0     -39.363  20.298  -4.268  0.00  0.00     0.067 A 
ATOM     20  N   UNK d   0     -38.621  20.027  -3.192  0.00  0.00    -0.248 NA
ATOM     21  C   UNK d   0     -38.485  20.920  -5.246  0.00  0.00    -0.011 A 
ATOM     22  C   UNK d   0     -37.323  20.427  -3.394  0.00  0.00     0.066 A 
ATOM     23  C   UNK d   0     -36.430  20.169  -2.363  0.00  0.00     0.062 C 
ATOM     24  C   UNK d   0     -37.294  20.997  -4.727  0.00  0.00    -0.020 A 
ATOM     25  C   UNK d   0     -36.671  19.467  -1.173  0.00  0.00     0.041 A 
ATOM     26  N   UNK d   0     -37.724  19.454  -0.346  0.00  0.00    -0.355 N 
ATOM     27  C   UNK d   0     -35.680  18.577  -0.702  0.00  0.00    -0.022 A 
ATOM     28  C   UNK d   0     -37.439  18.583   0.635  0.00  0.00     0.042 A 
ATOM     29  H   UNK d   0     -38.649  20.074  -0.440  0.00  0.00     0.166 HD
ATOM     30  C   UNK d   0     -38.183  18.179   1.754  0.00  0.00     0.062 C 
ATOM     31  C   UNK d   0     -36.158  18.014   0.441  0.00  0.00    -0.013 A 
ATOM     32  C   UNK d   0     -39.544  17.926   1.830  0.00  0.00     0.066 A 
BRANCH   8  33
ATOM     33  C   UNK d   0     -42.873  16.949   3.046  0.00  0.00     0.151 C 
BRANCH  33  34
ATOM     34  C   UNK d   0     -43.355  17.932   4.033  0.00  0.00     0.143 C 
ATOM     35  O   UNK d   0     -43.311  19.148   3.795  0.00  0.00    -0.650 OA
BRANCH  34  36
ATOM     36  O   UNK d   0     -43.859  17.491   5.235  0.00  0.00    -0.776 OA
ATOM     37  H   UNK d   0     -43.459  17.805   6.130  0.00  0.00     0.167 HD
ENDBRANCH  34  36
ENDBRANCH  33  34
ENDBRANCH   8  33
BRANCH  31  38
ATOM     38  C   UNK d   0     -35.449  16.987   1.292  0.00  0.00     0.151 C 
BRANCH  38  39
ATOM     39  C   UNK d   0     -34.455  17.571   2.166  0.00  0.00     0.143 C 
ATOM     40  O   UNK d   0     -34.418  18.790   2.412  0.00  0.00    -0.650 OA
BRANCH  39  41
ATOM     41  O   UNK d   0     -33.498  16.751   2.763  0.00  0.00    -0.776 OA
ATOM     42  H   UNK d   0     -32.622  16.615   2.249  0.00  0.00     0.167 HD
ENDBRANCH  39  41
ENDBRANCH  38  39
ENDBRANCH  31  38
BRANCH  27  43
ATOM     43  C   UNK d   0     -34.327  18.255  -1.285  0.00  0.00     0.052 C 
BRANCH  43  44
ATOM     44  C   UNK d   0     -33.593  19.460  -1.776  0.00  0.00     0.115 C 
BRANCH  44  45
ATOM     45  C   UNK d   0     -33.231  20.256  -0.575  0.00  0.00     0.139 C 
ATOM     46  O   UNK d   0     -33.630  21.445  -0.510  0.00  0.00    -0.650 OA
BRANCH  45  47
ATOM     47  O   UNK d   0     -32.486  19.742   0.465  0.00  0.00    -0.776 OA
ATOM     48  H   UNK d   0     -32.842  19.012   1.103  0.00  0.00     0.167 HD
ENDBRANCH  45  47
ENDBRANCH  44  45
ENDBRANCH  43  44
ENDBRANCH  27  43
BRANCH  24  49
ATOM     49  C   UNK d   0     -36.090  21.526  -5.390  0.00  0.00     0.052 C 
BRANCH  49  50
ATOM     50  C   UNK d   0     -35.661  22.818  -4.744  0.00  0.00     0.115 C 
BRANCH  50  51
ATOM     51  C   UNK d   0     -36.515  23.980  -4.950  0.00  0.00     0.139 C 
ATOM     52  O   UNK d   0     -36.932  24.321  -6.082  0.00  0.00    -0.650 OA
BRANCH  51  53
ATOM     53  O   UNK d   0     -36.894  24.754  -3.864  0.00  0.00    -0.776 OA
ATOM     54  H   UNK d   0     -36.565  25.703  -3.819  0.00  0.00     0.167 HD
ENDBRANCH  51  53
ENDBRANCH  50  51
ENDBRANCH  49  50
ENDBRANCH  24  49
BRANCH  21  55
ATOM     55  C   UNK d   0     -38.929  21.370  -6.599  0.00  0.00     0.151 C 
BRANCH  55  56
ATOM     56  C   UNK d   0     -40.039  22.331  -6.525  0.00  0.00     0.143 C 
ATOM     57  O   UNK d   0     -41.159  22.110  -7.027  0.00  0.00    -0.650 OA
BRANCH  56  58
ATOM     58  O   UNK d   0     -39.812  23.535  -5.860  0.00  0.00    -0.776 OA
ATOM     59  H   UNK d   0     -39.953  23.501  -4.835  0.00  0.00     0.167 HD
ENDBRANCH  56  58
ENDBRANCH  55  56
ENDBRANCH  21  55
BRANCH  18  60
ATOM     60  C   UNK d   0     -43.465  21.143  -3.739  0.00  0.00     0.151 C 
BRANCH  60  61
ATOM     61  C   UNK d   0     -42.828  22.436  -3.443  0.00  0.00     0.143 C 
ATOM     62  O   UNK d   0     -42.485  22.859  -2.339  0.00  0.00    -0.650 OA
BRANCH  61  63
ATOM     63  O   UNK d   0     -42.596  23.264  -4.568  0.00  0.00    -0.776 OA
ATOM     64  H   UNK d   0     -43.328  23.836  -4.950  0.00  0.00     0.167 HD
ENDBRANCH  61  63
ENDBRANCH  60  61
ENDBRANCH  18  60
BRANCH  14  65
ATOM     65  C   UNK d   0     -44.620  19.799  -1.276  0.00  0.00     0.052 C 
BRANCH  65  66
ATOM     66  C   UNK d   0     -44.724  21.017  -0.428  0.00  0.00     0.115 C 
BRANCH  66  67
ATOM     67  C   UNK d   0     -44.347  20.954   0.956  0.00  0.00     0.139 C 
ATOM     68  O   UNK d   0     -43.191  21.399   1.299  0.00  0.00    -0.650 OA
BRANCH  67  69
ATOM     69  O   UNK d   0     -45.096  20.456   2.023  0.00  0.00    -0.776 OA
ATOM     70  H   UNK d   0     -46.011  20.052   1.777  0.00  0.00     0.167 HD
ENDBRANCH  67  69
ENDBRANCH  66  67
ENDBRANCH  65  66
ENDBRANCH  14  65
ENDBRANCH   6   7
ENDBRANCH   5   6
ENDBRANCH   2   5
TORSDOF 28
ENDMDL
