MODEL 1
REMARK VINA RESULT:      -9.9      0.000      0.000
REMARK  28 active torsions:
REMARK  status: ('A' for Active; 'I' for Inactive)
REMARK    1  A    between atoms: C_2  and  O_3 
REMARK    2  A    between atoms: C_2  and  C_4 
REMARK    3  A    between atoms: C_4  and  C_5 
REMARK    4  A    between atoms: C_5  and  C_6 
REMARK    5  A    between atoms: C_7  and  C_8 
REMARK    6  A    between atoms: C_8  and  C_9 
REMARK    7  A    between atoms: C_9  and  O_11 
REMARK    8  A    between atoms: C_28  and  C_29 
REMARK    9  A    between atoms: C_29  and  C_30 
REMARK   10  A    between atoms: C_30  and  O_32 
REMARK   11  A    between atoms: C_33  and  C_34 
REMARK   12  A    between atoms: C_34  and  C_35 
REMARK   13  A    between atoms: C_35  and  C_36 
REMARK   14  A    between atoms: C_36  and  O_38 
REMARK   15  A    between atoms: C_39  and  C_40 
REMARK   16  A    between atoms: C_40  and  C_41 
REMARK   17  A    between atoms: C_41  and  C_42 
REMARK   18  A    between atoms: C_42  and  O_44 
REMARK   19  A    between atoms: C_45  and  C_46 
REMARK   20  A    between atoms: C_46  and  C_47 
REMARK   21  A    between atoms: C_47  and  O_49 
REMARK   22  A    between atoms: C_50  and  C_51 
REMARK   23  A    between atoms: C_51  and  C_52 
REMARK   24  A    between atoms: C_52  and  O_54 
REMARK   25  A    between atoms: C_55  and  C_56 
REMARK   26  A    between atoms: C_56  and  C_57 
REMARK   27  A    between atoms: C_57  and  C_58 
REMARK   28  A    between atoms: C_58  and  O_60 
ROOT
ATOM      1  O   UNK d   0     -23.185  -3.413 -19.475  0.00  0.00    -0.650 OA
ATOM      2  C   UNK d   0     -23.098  -3.712 -20.687  0.00  0.00     0.139 C 
ENDROOT
BRANCH   2   3
ATOM      3  O   UNK d   0     -24.162  -3.464 -21.519  0.00  0.00    -0.776 OA
ATOM      4  H   UNK d   0     -24.042  -3.430 -22.534  0.00  0.00     0.167 HD
ENDBRANCH   2   3
BRANCH   2   5
ATOM      5  C   UNK d   0     -21.850  -4.330 -21.218  0.00  0.00     0.115 C 
BRANCH   5   6
ATOM      6  C   UNK d   0     -21.896  -5.823 -21.041  0.00  0.00     0.052 C 
BRANCH   6   7
ATOM      7  C   UNK d   0     -22.268  -6.547 -22.313  0.00  0.00    -0.020 A 
ATOM      8  C   UNK d   0     -23.193  -7.459 -22.471  0.00  0.00    -0.011 A 
ATOM      9  C   UNK d   0     -23.178  -7.871 -23.865  0.00  0.00     0.067 A 
ATOM     10  C   UNK d   0     -23.906  -8.766 -24.664  0.00  0.00     0.062 C 
ATOM     11  N   UNK d   0     -22.209  -7.162 -24.482  0.00  0.00    -0.248 NA
ATOM     12  C   UNK d   0     -23.932  -8.825 -26.062  0.00  0.00     0.041 A 
ATOM     13  N   UNK d   0     -22.944  -8.731 -26.972  0.00  0.00    -0.355 N 
ATOM     14  C   UNK d   0     -25.172  -8.951 -26.715  0.00  0.00    -0.022 A 
ATOM     15  C   UNK d   0     -23.526  -8.785 -28.185  0.00  0.00     0.042 A 
ATOM     16  H   UNK d   0     -21.855  -8.647 -26.761  0.00  0.00     0.166 HD
ATOM     17  C   UNK d   0     -22.957  -8.732 -29.473  0.00  0.00     0.062 C 
ATOM     18  C   UNK d   0     -24.922  -8.923 -28.064  0.00  0.00    -0.013 A 
ATOM     19  C   UNK d   0     -21.990  -7.887 -29.955  0.00  0.00     0.067 A 
ATOM     20  N   UNK d   0     -21.342  -7.137 -29.060  0.00  0.00    -0.248 NA
ATOM     21  C   UNK d   0     -21.451  -7.554 -31.263  0.00  0.00    -0.011 A 
ATOM     22  C   UNK d   0     -20.420  -6.336 -29.688  0.00  0.00     0.066 A 
ATOM     23  C   UNK d   0     -19.646  -5.527 -28.869  0.00  0.00     0.062 C 
ATOM     24  C   UNK d   0     -20.536  -6.643 -31.101  0.00  0.00    -0.020 A 
ATOM     25  C   UNK d   0     -19.626  -5.492 -27.466  0.00  0.00     0.041 A 
ATOM     26  N   UNK d   0     -20.610  -5.571 -26.562  0.00  0.00    -0.355 N 
ATOM     27  C   UNK d   0     -18.381  -5.370 -26.812  0.00  0.00    -0.022 A 
ATOM     28  C   UNK d   0     -20.034  -5.508 -25.351  0.00  0.00     0.042 A 
ATOM     29  H   UNK d   0     -21.705  -5.645 -26.776  0.00  0.00     0.166 HD
ATOM     30  C   UNK d   0     -20.587  -5.550 -24.062  0.00  0.00     0.062 C 
ATOM     31  C   UNK d   0     -18.630  -5.380 -25.473  0.00  0.00    -0.013 A 
ATOM     32  C   UNK d   0     -21.624  -6.347 -23.603  0.00  0.00     0.066 A 
BRANCH   8  33
ATOM     33  C   UNK d   0     -24.096  -7.993 -21.435  0.00  0.00     0.151 C 
BRANCH  33  34
ATOM     34  C   UNK d   0     -24.771  -6.933 -20.665  0.00  0.00     0.143 C 
ATOM     35  O   UNK d   0     -24.561  -6.796 -19.451  0.00  0.00    -0.650 OA
BRANCH  34  36
ATOM     36  O   UNK d   0     -25.645  -6.086 -21.305  0.00  0.00    -0.776 OA
ATOM     37  H   UNK d   0     -25.967  -6.275 -22.264  0.00  0.00     0.167 HD
ENDBRANCH  34  36
ENDBRANCH  33  34
ENDBRANCH   8  33
BRANCH  31  38
ATOM     38  C   UNK d   0     -17.597  -5.288 -24.374  0.00  0.00     0.151 C 
BRANCH  38  39
ATOM     39  C   UNK d   0     -17.078  -3.947 -24.203  0.00  0.00     0.143 C 
ATOM     40  O   UNK d   0     -17.791  -3.000 -23.831  0.00  0.00    -0.650 OA
BRANCH  39  41
ATOM     41  O   UNK d   0     -15.730  -3.695 -24.461  0.00  0.00    -0.776 OA
ATOM     42  H   UNK d   0     -15.154  -3.407 -23.665  0.00  0.00     0.167 HD
ENDBRANCH  39  41
ENDBRANCH  38  39
ENDBRANCH  31  38
BRANCH  27  43
ATOM     43  C   UNK d   0     -16.998  -5.246 -27.399  0.00  0.00     0.052 C 
BRANCH  43  44
ATOM     44  C   UNK d   0     -16.193  -6.500 -27.288  0.00  0.00     0.115 C 
BRANCH  44  45
ATOM     45  C   UNK d   0     -14.765  -6.090 -27.292  0.00  0.00     0.139 C 
ATOM     46  O   UNK d   0     -14.308  -5.529 -26.265  0.00  0.00    -0.650 OA
BRANCH  45  47
ATOM     47  O   UNK d   0     -13.929  -6.304 -28.366  0.00  0.00    -0.776 OA
ATOM     48  H   UNK d   0     -14.240  -6.768 -29.235  0.00  0.00     0.167 HD
ENDBRANCH  45  47
ENDBRANCH  44  45
ENDBRANCH  43  44
ENDBRANCH  27  43
BRANCH  24  49
ATOM     49  C   UNK d   0     -19.706  -6.046 -32.161  0.00  0.00     0.052 C 
BRANCH  49  50
ATOM     50  C   UNK d   0     -18.359  -6.719 -32.215  0.00  0.00     0.115 C 
BRANCH  50  51
ATOM     51  C   UNK d   0     -18.167  -7.743 -33.234  0.00  0.00     0.139 C 
ATOM     52  O   UNK d   0     -17.998  -7.468 -34.445  0.00  0.00    -0.650 OA
BRANCH  51  53
ATOM     53  O   UNK d   0     -18.171  -9.081 -32.871  0.00  0.00    -0.776 OA
ATOM     54  H   UNK d   0     -17.966  -9.315 -31.915  0.00  0.00     0.167 HD
ENDBRANCH  51  53
ENDBRANCH  50  51
ENDBRANCH  49  50
ENDBRANCH  24  49
BRANCH  21  55
ATOM     55  C   UNK d   0     -21.904  -8.184 -32.538  0.00  0.00     0.151 C 
BRANCH  55  56
ATOM     56  C   UNK d   0     -21.792  -9.651 -32.499  0.00  0.00     0.143 C 
ATOM     57  O   UNK d   0     -22.718 -10.408 -32.852  0.00  0.00    -0.650 OA
BRANCH  56  58
ATOM     58  O   UNK d   0     -20.594 -10.198 -32.044  0.00  0.00    -0.776 OA
ATOM     59  H   UNK d   0     -20.197  -9.742 -31.203  0.00  0.00     0.167 HD
ENDBRANCH  56  58
ENDBRANCH  55  56
ENDBRANCH  21  55
BRANCH  18  60
ATOM     60  C   UNK d   0     -25.974  -9.020 -29.141  0.00  0.00     0.151 C 
BRANCH  60  61
ATOM     61  C   UNK d   0     -26.303  -7.635 -29.511  0.00  0.00     0.143 C 
ATOM     62  O   UNK d   0     -26.882  -6.799 -28.817  0.00  0.00    -0.650 OA
BRANCH  61  63
ATOM     63  O   UNK d   0     -25.899  -7.247 -30.811  0.00  0.00    -0.776 OA
ATOM     64  H   UNK d   0     -25.195  -6.543 -30.946  0.00  0.00     0.167 HD
ENDBRANCH  61  63
ENDBRANCH  60  61
ENDBRANCH  18  60
BRANCH  14  65
ATOM     65  C   UNK d   0     -26.550  -9.192 -26.166  0.00  0.00     0.052 C 
BRANCH  65  66
ATOM     66  C   UNK d   0     -27.160  -7.974 -25.569  0.00  0.00     0.115 C 
BRANCH  66  67
ATOM     67  C   UNK d   0     -27.534  -7.971 -24.183  0.00  0.00     0.139 C 
ATOM     68  O   UNK d   0     -26.663  -7.604 -23.313  0.00  0.00    -0.650 OA
BRANCH  67  69
ATOM     69  O   UNK d   0     -28.764  -8.328 -23.632  0.00  0.00    -0.776 OA
ATOM     70  H   UNK d   0     -29.110  -9.267 -23.877  0.00  0.00     0.167 HD
ENDBRANCH  67  69
ENDBRANCH  66  67
ENDBRANCH  65  66
ENDBRANCH  14  65
ENDBRANCH   6   7
ENDBRANCH   5   6
ENDBRANCH   2   5
TORSDOF 28
ENDMDL
MODEL 2
REMARK VINA RESULT:      -9.8      1.553      7.329
REMARK  28 active torsions:
REMARK  status: ('A' for Active; 'I' for Inactive)
REMARK    1  A    between atoms: C_2  and  O_3 
REMARK    2  A    between atoms: C_2  and  C_4 
REMARK    3  A    between atoms: C_4  and  C_5 
REMARK    4  A    between atoms: C_5  and  C_6 
REMARK    5  A    between atoms: C_7  and  C_8 
REMARK    6  A    between atoms: C_8  and  C_9 
REMARK    7  A    between atoms: C_9  and  O_11 
REMARK    8  A    between atoms: C_28  and  C_29 
REMARK    9  A    between atoms: C_29  and  C_30 
REMARK   10  A    between atoms: C_30  and  O_32 
REMARK   11  A    between atoms: C_33  and  C_34 
REMARK   12  A    between atoms: C_34  and  C_35 
REMARK   13  A    between atoms: C_35  and  C_36 
REMARK   14  A    between atoms: C_36  and  O_38 
REMARK   15  A    between atoms: C_39  and  C_40 
REMARK   16  A    between atoms: C_40  and  C_41 
REMARK   17  A    between atoms: C_41  and  C_42 
REMARK   18  A    between atoms: C_42  and  O_44 
REMARK   19  A    between atoms: C_45  and  C_46 
REMARK   20  A    between atoms: C_46  and  C_47 
REMARK   21  A    between atoms: C_47  and  O_49 
REMARK   22  A    between atoms: C_50  and  C_51 
REMARK   23  A    between atoms: C_51  and  C_52 
REMARK   24  A    between atoms: C_52  and  O_54 
REMARK   25  A    between atoms: C_55  and  C_56 
REMARK   26  A    between atoms: C_56  and  C_57 
REMARK   27  A    between atoms: C_57  and  C_58 
REMARK   28  A    between atoms: C_58  and  O_60 
ROOT
ATOM      1  O   UNK d   0     -27.237  -8.948 -21.422  0.00  0.00    -0.650 OA
ATOM      2  C   UNK d   0     -26.382  -8.426 -22.172  0.00  0.00     0.139 C 
ENDROOT
BRANCH   2   3
ATOM      3  O   UNK d   0     -26.759  -7.413 -23.021  0.00  0.00    -0.776 OA
ATOM      4  H   UNK d   0     -26.520  -6.440 -22.820  0.00  0.00     0.167 HD
ENDBRANCH   2   3
BRANCH   2   5
ATOM      5  C   UNK d   0     -24.970  -8.902 -22.142  0.00  0.00     0.115 C 
BRANCH   5   6
ATOM      6  C   UNK d   0     -24.081  -7.846 -21.543  0.00  0.00     0.052 C 
BRANCH   6   7
ATOM      7  C   UNK d   0     -23.122  -7.255 -22.548  0.00  0.00    -0.020 A 
ATOM      8  C   UNK d   0     -22.246  -6.303 -22.351  0.00  0.00    -0.011 A 
ATOM      9  C   UNK d   0     -21.558  -6.064 -23.609  0.00  0.00     0.067 A 
ATOM     10  C   UNK d   0     -20.530  -5.220 -24.056  0.00  0.00     0.062 C 
ATOM     11  N   UNK d   0     -22.083  -6.911 -24.519  0.00  0.00    -0.248 NA
ATOM     12  C   UNK d   0     -19.804  -5.327 -25.247  0.00  0.00     0.041 A 
ATOM     13  N   UNK d   0     -20.199  -5.603 -26.505  0.00  0.00    -0.355 N 
ATOM     14  C   UNK d   0     -18.404  -5.189 -25.206  0.00  0.00    -0.022 A 
ATOM     15  C   UNK d   0     -19.086  -5.652 -27.261  0.00  0.00     0.042 A 
ATOM     16  H   UNK d   0     -21.246  -5.741 -26.855  0.00  0.00     0.166 HD
ATOM     17  C   UNK d   0     -18.928  -5.901 -28.638  0.00  0.00     0.062 C 
ATOM     18  C   UNK d   0     -17.941  -5.398 -26.481  0.00  0.00    -0.013 A 
ATOM     19  C   UNK d   0     -19.518  -6.867 -29.413  0.00  0.00     0.067 A 
ATOM     20  N   UNK d   0     -20.525  -7.551 -28.864  0.00  0.00    -0.248 NA
ATOM     21  C   UNK d   0     -19.324  -7.394 -30.754  0.00  0.00    -0.011 A 
ATOM     22  C   UNK d   0     -21.003  -8.487 -29.748  0.00  0.00     0.066 A 
ATOM     23  C   UNK d   0     -22.082  -9.246 -29.319  0.00  0.00     0.062 C 
ATOM     24  C   UNK d   0     -20.193  -8.344 -30.942  0.00  0.00    -0.020 A 
ATOM     25  C   UNK d   0     -22.805  -9.114 -28.123  0.00  0.00     0.041 A 
ATOM     26  N   UNK d   0     -22.411  -8.855 -26.871  0.00  0.00    -0.355 N 
ATOM     27  C   UNK d   0     -24.210  -9.248 -28.166  0.00  0.00    -0.022 A 
ATOM     28  C   UNK d   0     -23.518  -8.814 -26.113  0.00  0.00     0.042 A 
ATOM     29  H   UNK d   0     -21.357  -8.726 -26.519  0.00  0.00     0.166 HD
ATOM     30  C   UNK d   0     -23.689  -8.576 -24.741  0.00  0.00     0.062 C 
ATOM     31  C   UNK d   0     -24.669  -9.059 -26.899  0.00  0.00    -0.013 A 
ATOM     32  C   UNK d   0     -23.028  -7.655 -23.944  0.00  0.00     0.066 A 
BRANCH   8  33
ATOM     33  C   UNK d   0     -21.990  -5.583 -21.090  0.00  0.00     0.151 C 
BRANCH  33  34
ATOM     34  C   UNK d   0     -22.882  -4.424 -20.903  0.00  0.00     0.143 C 
ATOM     35  O   UNK d   0     -23.267  -3.754 -21.872  0.00  0.00    -0.650 OA
BRANCH  34  36
ATOM     36  O   UNK d   0     -23.289  -4.083 -19.634  0.00  0.00    -0.776 OA
ATOM     37  H   UNK d   0     -24.246  -4.279 -19.309  0.00  0.00     0.167 HD
ENDBRANCH  34  36
ENDBRANCH  33  34
ENDBRANCH   8  33
BRANCH  31  38
ATOM     38  C   UNK d   0     -26.115  -9.095 -26.460  0.00  0.00     0.151 C 
BRANCH  38  39
ATOM     39  C   UNK d   0     -26.812  -7.854 -26.722  0.00  0.00     0.143 C 
ATOM     40  O   UNK d   0     -27.471  -7.264 -25.848  0.00  0.00    -0.650 OA
BRANCH  39  41
ATOM     41  O   UNK d   0     -26.751  -7.288 -27.995  0.00  0.00    -0.776 OA
ATOM     42  H   UNK d   0     -26.264  -7.828 -28.717  0.00  0.00     0.167 HD
ENDBRANCH  39  41
ENDBRANCH  38  39
ENDBRANCH  31  38
BRANCH  27  43
ATOM     43  C   UNK d   0     -25.109  -9.545 -29.341  0.00  0.00     0.052 C 
BRANCH  43  44
ATOM     44  C   UNK d   0     -25.902 -10.800 -29.175  0.00  0.00     0.115 C 
BRANCH  44  45
ATOM     45  C   UNK d   0     -24.952 -11.929 -29.352  0.00  0.00     0.139 C 
ATOM     46  O   UNK d   0     -25.032 -12.899 -28.558  0.00  0.00    -0.650 OA
BRANCH  45  47
ATOM     47  O   UNK d   0     -24.000 -11.955 -30.348  0.00  0.00    -0.776 OA
ATOM     48  H   UNK d   0     -24.239 -12.029 -31.350  0.00  0.00     0.167 HD
ENDBRANCH  45  47
ENDBRANCH  44  45
ENDBRANCH  43  44
ENDBRANCH  27  43
BRANCH  24  49
ATOM     49  C   UNK d   0     -20.373  -9.124 -32.179  0.00  0.00     0.052 C 
BRANCH  49  50
ATOM     50  C   UNK d   0     -21.602  -8.659 -32.917  0.00  0.00     0.115 C 
BRANCH  50  51
ATOM     51  C   UNK d   0     -22.737  -9.571 -32.960  0.00  0.00     0.139 C 
ATOM     52  O   UNK d   0     -22.703 -10.718 -32.454  0.00  0.00    -0.650 OA
BRANCH  51  53
ATOM     53  O   UNK d   0     -23.912  -9.177 -33.582  0.00  0.00    -0.776 OA
ATOM     54  H   UNK d   0     -24.772  -9.603 -33.287  0.00  0.00     0.167 HD
ENDBRANCH  51  53
ENDBRANCH  50  51
ENDBRANCH  49  50
ENDBRANCH  24  49
BRANCH  21  55
ATOM     55  C   UNK d   0     -18.293  -6.889 -31.708  0.00  0.00     0.151 C 
BRANCH  55  56
ATOM     56  C   UNK d   0     -17.070  -7.707 -31.682  0.00  0.00     0.143 C 
ATOM     57  O   UNK d   0     -16.362  -7.895 -32.691  0.00  0.00    -0.650 OA
BRANCH  56  58
ATOM     58  O   UNK d   0     -16.704  -8.289 -30.470  0.00  0.00    -0.776 OA
ATOM     59  H   UNK d   0     -15.729  -8.103 -30.174  0.00  0.00     0.167 HD
ENDBRANCH  56  58
ENDBRANCH  55  56
ENDBRANCH  21  55
BRANCH  18  60
ATOM     60  C   UNK d   0     -16.490  -5.352 -26.892  0.00  0.00     0.151 C 
BRANCH  60  61
ATOM     61  C   UNK d   0     -16.042  -6.752 -26.949  0.00  0.00     0.143 C 
ATOM     62  O   UNK d   0     -16.219  -7.623 -26.097  0.00  0.00    -0.650 OA
BRANCH  61  63
ATOM     63  O   UNK d   0     -15.335  -7.111 -28.122  0.00  0.00    -0.776 OA
ATOM     64  H   UNK d   0     -14.422  -7.526 -28.070  0.00  0.00     0.167 HD
ENDBRANCH  61  63
ENDBRANCH  60  61
ENDBRANCH  18  60
BRANCH  14  65
ATOM     65  C   UNK d   0     -17.491  -4.782 -24.085  0.00  0.00     0.052 C 
BRANCH  65  66
ATOM     66  C   UNK d   0     -17.242  -3.317 -24.040  0.00  0.00     0.115 C 
BRANCH  66  67
ATOM     67  C   UNK d   0     -16.527  -2.750 -22.931  0.00  0.00     0.139 C 
ATOM     68  O   UNK d   0     -15.722  -1.773 -23.155  0.00  0.00    -0.650 OA
BRANCH  67  69
ATOM     69  O   UNK d   0     -16.591  -3.130 -21.591  0.00  0.00    -0.776 OA
ATOM     70  H   UNK d   0     -17.456  -2.873 -21.093  0.00  0.00     0.167 HD
ENDBRANCH  67  69
ENDBRANCH  66  67
ENDBRANCH  65  66
ENDBRANCH  14  65
ENDBRANCH   6   7
ENDBRANCH   5   6
ENDBRANCH   2   5
TORSDOF 28
ENDMDL
MODEL 3
REMARK VINA RESULT:      -9.0     30.179     34.013
REMARK  28 active torsions:
REMARK  status: ('A' for Active; 'I' for Inactive)
REMARK    1  A    between atoms: C_2  and  O_3 
REMARK    2  A    between atoms: C_2  and  C_4 
REMARK    3  A    between atoms: C_4  and  C_5 
REMARK    4  A    between atoms: C_5  and  C_6 
REMARK    5  A    between atoms: C_7  and  C_8 
REMARK    6  A    between atoms: C_8  and  C_9 
REMARK    7  A    between atoms: C_9  and  O_11 
REMARK    8  A    between atoms: C_28  and  C_29 
REMARK    9  A    between atoms: C_29  and  C_30 
REMARK   10  A    between atoms: C_30  and  O_32 
REMARK   11  A    between atoms: C_33  and  C_34 
REMARK   12  A    between atoms: C_34  and  C_35 
REMARK   13  A    between atoms: C_35  and  C_36 
REMARK   14  A    between atoms: C_36  and  O_38 
REMARK   15  A    between atoms: C_39  and  C_40 
REMARK   16  A    between atoms: C_40  and  C_41 
REMARK   17  A    between atoms: C_41  and  C_42 
REMARK   18  A    between atoms: C_42  and  O_44 
REMARK   19  A    between atoms: C_45  and  C_46 
REMARK   20  A    between atoms: C_46  and  C_47 
REMARK   21  A    between atoms: C_47  and  O_49 
REMARK   22  A    between atoms: C_50  and  C_51 
REMARK   23  A    between atoms: C_51  and  C_52 
REMARK   24  A    between atoms: C_52  and  O_54 
REMARK   25  A    between atoms: C_55  and  C_56 
REMARK   26  A    between atoms: C_56  and  C_57 
REMARK   27  A    between atoms: C_57  and  C_58 
REMARK   28  A    between atoms: C_58  and  O_60 
ROOT
ATOM      1  O   UNK d   0      -2.321 -17.763  -7.222  0.00  0.00    -0.650 OA
ATOM      2  C   UNK d   0      -1.252 -17.357  -6.713  0.00  0.00     0.139 C 
ENDROOT
BRANCH   2   3
ATOM      3  O   UNK d   0      -0.167 -17.124  -7.523  0.00  0.00    -0.776 OA
ATOM      4  H   UNK d   0       0.022 -16.192  -7.897  0.00  0.00     0.167 HD
ENDBRANCH   2   3
BRANCH   2   5
ATOM      5  C   UNK d   0      -1.162 -17.131  -5.243  0.00  0.00     0.115 C 
BRANCH   5   6
ATOM      6  C   UNK d   0      -0.292 -18.183  -4.610  0.00  0.00     0.052 C 
BRANCH   6   7
ATOM      7  C   UNK d   0      -1.002 -18.943  -3.515  0.00  0.00    -0.020 A 
ATOM      8  C   UNK d   0      -0.763 -18.899  -2.229  0.00  0.00    -0.011 A 
ATOM      9  C   UNK d   0      -1.692 -19.804  -1.573  0.00  0.00     0.067 A 
ATOM     10  C   UNK d   0      -1.966 -20.191  -0.252  0.00  0.00     0.062 C 
ATOM     11  N   UNK d   0      -2.455 -20.362  -2.536  0.00  0.00    -0.248 NA
ATOM     12  C   UNK d   0      -3.094 -20.875   0.214  0.00  0.00     0.041 A 
ATOM     13  N   UNK d   0      -3.764 -21.928  -0.292  0.00  0.00    -0.355 N 
ATOM     14  C   UNK d   0      -3.736 -20.416   1.378  0.00  0.00    -0.022 A 
ATOM     15  C   UNK d   0      -4.818 -22.144   0.517  0.00  0.00     0.042 A 
ATOM     16  H   UNK d   0      -3.486 -22.519  -1.192  0.00  0.00     0.166 HD
ATOM     17  C   UNK d   0      -5.836 -23.116   0.452  0.00  0.00     0.062 C 
ATOM     18  C   UNK d   0      -4.834 -21.215   1.576  0.00  0.00    -0.013 A 
ATOM     19  C   UNK d   0      -6.562 -23.532  -0.635  0.00  0.00     0.067 A 
ATOM     20  N   UNK d   0      -6.141 -23.125  -1.835  0.00  0.00    -0.248 NA
ATOM     21  C   UNK d   0      -7.753 -24.338  -0.850  0.00  0.00    -0.011 A 
ATOM     22  C   UNK d   0      -6.971 -23.605  -2.819  0.00  0.00     0.066 A 
ATOM     23  C   UNK d   0      -6.626 -23.288  -4.125  0.00  0.00     0.062 C 
ATOM     24  C   UNK d   0      -7.989 -24.373  -2.129  0.00  0.00    -0.020 A 
ATOM     25  C   UNK d   0      -5.482 -22.611  -4.572  0.00  0.00     0.041 A 
ATOM     26  N   UNK d   0      -4.824 -21.555  -4.078  0.00  0.00    -0.355 N 
ATOM     27  C   UNK d   0      -4.836 -23.076  -5.739  0.00  0.00    -0.022 A 
ATOM     28  C   UNK d   0      -3.778 -21.333  -4.888  0.00  0.00     0.042 A 
ATOM     29  H   UNK d   0      -5.111 -20.956  -3.179  0.00  0.00     0.166 HD
ATOM     30  C   UNK d   0      -2.763 -20.364  -4.840  0.00  0.00     0.062 C 
ATOM     31  C   UNK d   0      -3.756 -22.273  -5.946  0.00  0.00    -0.013 A 
ATOM     32  C   UNK d   0      -2.091 -19.885  -3.727  0.00  0.00     0.066 A 
BRANCH   8  33
ATOM     33  C   UNK d   0       0.262 -18.088  -1.547  0.00  0.00     0.151 C 
BRANCH  33  34
ATOM     34  C   UNK d   0       1.578 -18.750  -1.504  0.00  0.00     0.143 C 
ATOM     35  O   UNK d   0       1.758 -19.763  -0.813  0.00  0.00    -0.650 OA
BRANCH  34  36
ATOM     36  O   UNK d   0       2.619 -18.233  -2.240  0.00  0.00    -0.776 OA
ATOM     37  H   UNK d   0       2.448 -17.625  -3.052  0.00  0.00     0.167 HD
ENDBRANCH  34  36
ENDBRANCH  33  34
ENDBRANCH   8  33
BRANCH  31  38
ATOM     38  C   UNK d   0      -2.756 -22.397  -7.071  0.00  0.00     0.151 C 
BRANCH  38  39
ATOM     39  C   UNK d   0      -3.192 -21.741  -8.285  0.00  0.00     0.143 C 
ATOM     40  O   UNK d   0      -3.629 -22.374  -9.263  0.00  0.00    -0.650 OA
BRANCH  39  41
ATOM     41  O   UNK d   0      -3.127 -20.351  -8.376  0.00  0.00    -0.776 OA
ATOM     42  H   UNK d   0      -3.858 -19.822  -7.890  0.00  0.00     0.167 HD
ENDBRANCH  39  41
ENDBRANCH  38  39
ENDBRANCH  31  38
BRANCH  27  43
ATOM     43  C   UNK d   0      -5.201 -24.226  -6.643  0.00  0.00     0.052 C 
BRANCH  43  44
ATOM     44  C   UNK d   0      -6.660 -24.287  -6.963  0.00  0.00     0.115 C 
BRANCH  44  45
ATOM     45  C   UNK d   0      -6.768 -24.335  -8.444  0.00  0.00     0.139 C 
ATOM     46  O   UNK d   0      -7.513 -25.208  -8.954  0.00  0.00    -0.650 OA
BRANCH  45  47
ATOM     47  O   UNK d   0      -6.094 -23.464  -9.271  0.00  0.00    -0.776 OA
ATOM     48  H   UNK d   0      -6.520 -22.600  -9.643  0.00  0.00     0.167 HD
ENDBRANCH  45  47
ENDBRANCH  44  45
ENDBRANCH  43  44
ENDBRANCH  27  43
BRANCH  24  49
ATOM     49  C   UNK d   0      -9.079 -25.111  -2.791  0.00  0.00     0.052 C 
BRANCH  49  50
ATOM     50  C   UNK d   0      -8.532 -26.310  -3.522  0.00  0.00     0.115 C 
BRANCH  50  51
ATOM     51  C   UNK d   0      -9.490 -27.158  -4.219  0.00  0.00     0.139 C 
ATOM     52  O   UNK d   0      -9.633 -27.135  -5.464  0.00  0.00    -0.650 OA
BRANCH  51  53
ATOM     53  O   UNK d   0     -10.287 -28.031  -3.495  0.00  0.00    -0.776 OA
ATOM     54  H   UNK d   0     -10.070 -29.012  -3.529  0.00  0.00     0.167 HD
ENDBRANCH  51  53
ENDBRANCH  50  51
ENDBRANCH  49  50
ENDBRANCH  24  49
BRANCH  21  55
ATOM     55  C   UNK d   0      -8.527 -24.991   0.246  0.00  0.00     0.151 C 
BRANCH  55  56
ATOM     56  C   UNK d   0      -8.230 -26.428   0.351  0.00  0.00     0.143 C 
ATOM     57  O   UNK d   0      -7.187 -26.865   0.876  0.00  0.00    -0.650 OA
BRANCH  56  58
ATOM     58  O   UNK d   0      -9.166 -27.324  -0.164  0.00  0.00    -0.776 OA
ATOM     59  H   UNK d   0      -8.873 -27.811  -1.030  0.00  0.00     0.167 HD
ENDBRANCH  56  58
ENDBRANCH  55  56
ENDBRANCH  21  55
BRANCH  18  60
ATOM     60  C   UNK d   0      -5.816 -21.070   2.712  0.00  0.00     0.151 C 
BRANCH  60  61
ATOM     61  C   UNK d   0      -6.377 -19.715   2.590  0.00  0.00     0.143 C 
ATOM     62  O   UNK d   0      -6.879 -19.207   1.588  0.00  0.00    -0.650 OA
BRANCH  61  63
ATOM     63  O   UNK d   0      -6.321 -18.932   3.768  0.00  0.00    -0.776 OA
ATOM     64  H   UNK d   0      -7.033 -18.255   3.975  0.00  0.00     0.167 HD
ENDBRANCH  61  63
ENDBRANCH  60  61
ENDBRANCH  18  60
BRANCH  14  65
ATOM     65  C   UNK d   0      -3.339 -19.352   2.363  0.00  0.00     0.052 C 
BRANCH  65  66
ATOM     66  C   UNK d   0      -3.110 -18.027   1.727  0.00  0.00     0.115 C 
BRANCH  66  67
ATOM     67  C   UNK d   0      -4.208 -17.331   1.118  0.00  0.00     0.139 C 
ATOM     68  O   UNK d   0      -4.338 -17.389  -0.160  0.00  0.00    -0.650 OA
BRANCH  67  69
ATOM     69  O   UNK d   0      -5.192 -16.571   1.749  0.00  0.00    -0.776 OA
ATOM     70  H   UNK d   0      -5.857 -16.092   1.125  0.00  0.00     0.167 HD
ENDBRANCH  67  69
ENDBRANCH  66  67
ENDBRANCH  65  66
ENDBRANCH  14  65
ENDBRANCH   6   7
ENDBRANCH   5   6
ENDBRANCH   2   5
TORSDOF 28
ENDMDL
MODEL 4
REMARK VINA RESULT:      -9.0      1.859     10.266
REMARK  28 active torsions:
REMARK  status: ('A' for Active; 'I' for Inactive)
REMARK    1  A    between atoms: C_2  and  O_3 
REMARK    2  A    between atoms: C_2  and  C_4 
REMARK    3  A    between atoms: C_4  and  C_5 
REMARK    4  A    between atoms: C_5  and  C_6 
REMARK    5  A    between atoms: C_7  and  C_8 
REMARK    6  A    between atoms: C_8  and  C_9 
REMARK    7  A    between atoms: C_9  and  O_11 
REMARK    8  A    between atoms: C_28  and  C_29 
REMARK    9  A    between atoms: C_29  and  C_30 
REMARK   10  A    between atoms: C_30  and  O_32 
REMARK   11  A    between atoms: C_33  and  C_34 
REMARK   12  A    between atoms: C_34  and  C_35 
REMARK   13  A    between atoms: C_35  and  C_36 
REMARK   14  A    between atoms: C_36  and  O_38 
REMARK   15  A    between atoms: C_39  and  C_40 
REMARK   16  A    between atoms: C_40  and  C_41 
REMARK   17  A    between atoms: C_41  and  C_42 
REMARK   18  A    between atoms: C_42  and  O_44 
REMARK   19  A    between atoms: C_45  and  C_46 
REMARK   20  A    between atoms: C_46  and  C_47 
REMARK   21  A    between atoms: C_47  and  O_49 
REMARK   22  A    between atoms: C_50  and  C_51 
REMARK   23  A    between atoms: C_51  and  C_52 
REMARK   24  A    between atoms: C_52  and  O_54 
REMARK   25  A    between atoms: C_55  and  C_56 
REMARK   26  A    between atoms: C_56  and  C_57 
REMARK   27  A    between atoms: C_57  and  C_58 
REMARK   28  A    between atoms: C_58  and  O_60 
ROOT
ATOM      1  O   UNK d   0     -20.273  -9.123 -32.176  0.00  0.00    -0.650 OA
ATOM      2  C   UNK d   0     -20.133  -7.945 -32.572  0.00  0.00     0.139 C 
ENDROOT
BRANCH   2   3
ATOM      3  O   UNK d   0     -20.940  -7.472 -33.579  0.00  0.00    -0.776 OA
ATOM      4  H   UNK d   0     -20.629  -6.717 -34.194  0.00  0.00     0.167 HD
ENDBRANCH   2   3
BRANCH   2   5
ATOM      5  C   UNK d   0     -19.099  -7.066 -31.955  0.00  0.00     0.115 C 
BRANCH   5   6
ATOM      6  C   UNK d   0     -19.753  -5.880 -31.299  0.00  0.00     0.052 C 
BRANCH   6   7
ATOM      7  C   UNK d   0     -19.919  -6.058 -29.809  0.00  0.00    -0.020 A 
ATOM      8  C   UNK d   0     -19.104  -5.669 -28.863  0.00  0.00    -0.011 A 
ATOM      9  C   UNK d   0     -19.678  -6.067 -27.589  0.00  0.00     0.067 A 
ATOM     10  C   UNK d   0     -19.328  -5.937 -26.236  0.00  0.00     0.062 C 
ATOM     11  N   UNK d   0     -20.840  -6.700 -27.854  0.00  0.00    -0.248 NA
ATOM     12  C   UNK d   0     -20.152  -6.145 -25.124  0.00  0.00     0.041 A 
ATOM     13  N   UNK d   0     -21.053  -7.109 -24.856  0.00  0.00    -0.355 N 
ATOM     14  C   UNK d   0     -20.140  -5.200 -24.082  0.00  0.00    -0.022 A 
ATOM     15  C   UNK d   0     -21.618  -6.796 -23.674  0.00  0.00     0.042 A 
ATOM     16  H   UNK d   0     -21.271  -8.004 -25.480  0.00  0.00     0.166 HD
ATOM     17  C   UNK d   0     -22.614  -7.463 -22.933  0.00  0.00     0.062 C 
ATOM     18  C   UNK d   0     -21.071  -5.605 -23.159  0.00  0.00    -0.013 A 
ATOM     19  C   UNK d   0     -23.791  -8.013 -23.371  0.00  0.00     0.067 A 
ATOM     20  N   UNK d   0     -23.954  -8.122 -24.692  0.00  0.00    -0.248 NA
ATOM     21  C   UNK d   0     -24.997  -8.533 -22.747  0.00  0.00    -0.011 A 
ATOM     22  C   UNK d   0     -25.179  -8.673 -24.978  0.00  0.00     0.066 A 
ATOM     23  C   UNK d   0     -25.464  -8.879 -26.319  0.00  0.00     0.062 C 
ATOM     24  C   UNK d   0     -25.807  -8.913 -23.693  0.00  0.00    -0.020 A 
ATOM     25  C   UNK d   0     -24.618  -8.676 -27.420  0.00  0.00     0.041 A 
ATOM     26  N   UNK d   0     -23.733  -7.710 -27.694  0.00  0.00    -0.355 N 
ATOM     27  C   UNK d   0     -24.628  -9.628 -28.463  0.00  0.00    -0.022 A 
ATOM     28  C   UNK d   0     -23.175  -8.015 -28.876  0.00  0.00     0.042 A 
ATOM     29  H   UNK d   0     -23.523  -6.806 -27.071  0.00  0.00     0.166 HD
ATOM     30  C   UNK d   0     -22.190  -7.357 -29.629  0.00  0.00     0.062 C 
ATOM     31  C   UNK d   0     -23.717  -9.218 -29.388  0.00  0.00    -0.013 A 
ATOM     32  C   UNK d   0     -21.043  -6.727 -29.172  0.00  0.00     0.066 A 
BRANCH   8  33
ATOM     33  C   UNK d   0     -17.824  -4.956 -29.035  0.00  0.00     0.151 C 
BRANCH  33  34
ATOM     34  C   UNK d   0     -16.746  -5.508 -28.194  0.00  0.00     0.143 C 
ATOM     35  O   UNK d   0     -16.263  -6.624 -28.431  0.00  0.00    -0.650 OA
BRANCH  34  36
ATOM     36  O   UNK d   0     -16.274  -4.771 -27.133  0.00  0.00    -0.776 OA
ATOM     37  H   UNK d   0     -16.899  -4.461 -26.377  0.00  0.00     0.167 HD
ENDBRANCH  34  36
ENDBRANCH  33  34
ENDBRANCH   8  33
BRANCH  31  38
ATOM     38  C   UNK d   0     -23.371  -9.929 -30.675  0.00  0.00     0.151 C 
BRANCH  38  39
ATOM     39  C   UNK d   0     -23.860  -9.237 -31.849  0.00  0.00     0.143 C 
ATOM     40  O   UNK d   0     -24.846  -8.480 -31.812  0.00  0.00    -0.650 OA
BRANCH  39  41
ATOM     41  O   UNK d   0     -23.211  -9.414 -33.070  0.00  0.00    -0.776 OA
ATOM     42  H   UNK d   0     -22.772 -10.326 -33.231  0.00  0.00     0.167 HD
ENDBRANCH  39  41
ENDBRANCH  38  39
ENDBRANCH  31  38
BRANCH  27  43
ATOM     43  C   UNK d   0     -25.454 -10.881 -28.610  0.00  0.00     0.052 C 
BRANCH  43  44
ATOM     44  C   UNK d   0     -24.779 -12.100 -28.068  0.00  0.00     0.115 C 
BRANCH  44  45
ATOM     45  C   UNK d   0     -25.087 -13.209 -29.009  0.00  0.00     0.139 C 
ATOM     46  O   UNK d   0     -24.893 -13.016 -30.234  0.00  0.00    -0.650 OA
BRANCH  45  47
ATOM     47  O   UNK d   0     -25.569 -14.430 -28.591  0.00  0.00    -0.776 OA
ATOM     48  H   UNK d   0     -25.611 -14.706 -27.597  0.00  0.00     0.167 HD
ENDBRANCH  45  47
ENDBRANCH  44  45
ENDBRANCH  43  44
ENDBRANCH  27  43
BRANCH  24  49
ATOM     49  C   UNK d   0     -27.128  -9.536 -23.506  0.00  0.00     0.052 C 
BRANCH  49  50
ATOM     50  C   UNK d   0     -28.185  -8.478 -23.320  0.00  0.00     0.115 C 
BRANCH  50  51
ATOM     51  C   UNK d   0     -28.930  -8.496 -22.068  0.00  0.00     0.139 C 
ATOM     52  O   UNK d   0     -30.183  -8.483 -22.027  0.00  0.00    -0.650 OA
BRANCH  51  53
ATOM     53  O   UNK d   0     -28.246  -8.526 -20.863  0.00  0.00    -0.776 OA
ATOM     54  H   UNK d   0     -28.060  -7.654 -20.400  0.00  0.00     0.167 HD
ENDBRANCH  51  53
ENDBRANCH  50  51
ENDBRANCH  49  50
ENDBRANCH  24  49
BRANCH  21  55
ATOM     55  C   UNK d   0     -25.212  -8.598 -21.272  0.00  0.00     0.151 C 
BRANCH  55  56
ATOM     56  C   UNK d   0     -25.158  -7.268 -20.647  0.00  0.00     0.143 C 
ATOM     57  O   UNK d   0     -24.416  -7.006 -19.680  0.00  0.00    -0.650 OA
BRANCH  56  58
ATOM     58  O   UNK d   0     -25.977  -6.270 -21.172  0.00  0.00    -0.776 OA
ATOM     59  H   UNK d   0     -25.480  -5.530 -21.700  0.00  0.00     0.167 HD
ENDBRANCH  56  58
ENDBRANCH  55  56
ENDBRANCH  21  55
BRANCH  18  60
ATOM     60  C   UNK d   0     -21.394  -4.875 -21.879  0.00  0.00     0.151 C 
BRANCH  60  61
ATOM     61  C   UNK d   0     -22.602  -4.083 -22.159  0.00  0.00     0.143 C 
ATOM     62  O   UNK d   0     -22.752  -3.250 -23.053  0.00  0.00    -0.650 OA
BRANCH  61  63
ATOM     63  O   UNK d   0     -23.695  -4.325 -21.292  0.00  0.00    -0.776 OA
ATOM     64  H   UNK d   0     -24.322  -3.585 -21.030  0.00  0.00     0.167 HD
ENDBRANCH  61  63
ENDBRANCH  60  61
ENDBRANCH  18  60
BRANCH  14  65
ATOM     65  C   UNK d   0     -19.254  -4.009 -23.848  0.00  0.00     0.052 C 
BRANCH  65  66
ATOM     66  C   UNK d   0     -17.860  -4.383 -23.487  0.00  0.00     0.115 C 
BRANCH  66  67
ATOM     67  C   UNK d   0     -16.788  -3.464 -23.745  0.00  0.00     0.139 C 
ATOM     68  O   UNK d   0     -15.585  -3.836 -23.483  0.00  0.00    -0.650 OA
BRANCH  67  69
ATOM     69  O   UNK d   0     -16.876  -2.172 -24.262  0.00  0.00    -0.776 OA
ATOM     70  H   UNK d   0     -16.564  -2.057 -25.237  0.00  0.00     0.167 HD
ENDBRANCH  67  69
ENDBRANCH  66  67
ENDBRANCH  65  66
ENDBRANCH  14  65
ENDBRANCH   6   7
ENDBRANCH   5   6
ENDBRANCH   2   5
TORSDOF 28
ENDMDL
MODEL 5
REMARK VINA RESULT:      -9.0      1.905      8.128
REMARK  28 active torsions:
REMARK  status: ('A' for Active; 'I' for Inactive)
REMARK    1  A    between atoms: C_2  and  O_3 
REMARK    2  A    between atoms: C_2  and  C_4 
REMARK    3  A    between atoms: C_4  and  C_5 
REMARK    4  A    between atoms: C_5  and  C_6 
REMARK    5  A    between atoms: C_7  and  C_8 
REMARK    6  A    between atoms: C_8  and  C_9 
REMARK    7  A    between atoms: C_9  and  O_11 
REMARK    8  A    between atoms: C_28  and  C_29 
REMARK    9  A    between atoms: C_29  and  C_30 
REMARK   10  A    between atoms: C_30  and  O_32 
REMARK   11  A    between atoms: C_33  and  C_34 
REMARK   12  A    between atoms: C_34  and  C_35 
REMARK   13  A    between atoms: C_35  and  C_36 
REMARK   14  A    between atoms: C_36  and  O_38 
REMARK   15  A    between atoms: C_39  and  C_40 
REMARK   16  A    between atoms: C_40  and  C_41 
REMARK   17  A    between atoms: C_41  and  C_42 
REMARK   18  A    between atoms: C_42  and  O_44 
REMARK   19  A    between atoms: C_45  and  C_46 
REMARK   20  A    between atoms: C_46  and  C_47 
REMARK   21  A    between atoms: C_47  and  O_49 
REMARK   22  A    between atoms: C_50  and  C_51 
REMARK   23  A    between atoms: C_51  and  C_52 
REMARK   24  A    between atoms: C_52  and  O_54 
REMARK   25  A    between atoms: C_55  and  C_56 
REMARK   26  A    between atoms: C_56  and  C_57 
REMARK   27  A    between atoms: C_57  and  C_58 
REMARK   28  A    between atoms: C_58  and  O_60 
ROOT
ATOM      1  O   UNK d   0     -27.454  -7.931 -26.803  0.00  0.00    -0.650 OA
ATOM      2  C   UNK d   0     -27.694  -8.932 -26.092  0.00  0.00     0.139 C 
ENDROOT
BRANCH   2   3
ATOM      3  O   UNK d   0     -28.745  -8.893 -25.207  0.00  0.00    -0.776 OA
ATOM      4  H   UNK d   0     -28.999  -9.714 -24.654  0.00  0.00     0.167 HD
ENDBRANCH   2   3
BRANCH   2   5
ATOM      5  C   UNK d   0     -26.845 -10.151 -26.206  0.00  0.00     0.115 C 
BRANCH   5   6
ATOM      6  C   UNK d   0     -26.567 -10.455 -27.653  0.00  0.00     0.052 C 
BRANCH   6   7
ATOM      7  C   UNK d   0     -25.131 -10.190 -28.037  0.00  0.00    -0.020 A 
ATOM      8  C   UNK d   0     -24.476 -10.674 -29.061  0.00  0.00    -0.011 A 
ATOM      9  C   UNK d   0     -23.124 -10.145 -29.015  0.00  0.00     0.067 A 
ATOM     10  C   UNK d   0     -21.967 -10.251 -29.804  0.00  0.00     0.062 C 
ATOM     11  N   UNK d   0     -23.041  -9.351 -27.927  0.00  0.00    -0.248 NA
ATOM     12  C   UNK d   0     -20.829  -9.440 -29.752  0.00  0.00     0.041 A 
ATOM     13  N   UNK d   0     -20.138  -8.948 -28.706  0.00  0.00    -0.355 N 
ATOM     14  C   UNK d   0     -20.276  -8.965 -30.956  0.00  0.00    -0.022 A 
ATOM     15  C   UNK d   0     -19.166  -8.167 -29.215  0.00  0.00     0.042 A 
ATOM     16  H   UNK d   0     -20.321  -9.163 -27.631  0.00  0.00     0.166 HD
ATOM     17  C   UNK d   0     -18.164  -7.417 -28.568  0.00  0.00     0.062 C 
ATOM     18  C   UNK d   0     -19.221  -8.153 -30.622  0.00  0.00    -0.013 A 
ATOM     19  C   UNK d   0     -18.271  -6.600 -27.471  0.00  0.00     0.067 A 
ATOM     20  N   UNK d   0     -19.417  -6.653 -26.788  0.00  0.00    -0.248 NA
ATOM     21  C   UNK d   0     -17.426  -5.616 -26.815  0.00  0.00    -0.011 A 
ATOM     22  C   UNK d   0     -19.383  -5.774 -25.733  0.00  0.00     0.066 A 
ATOM     23  C   UNK d   0     -20.501  -5.753 -24.912  0.00  0.00     0.062 C 
ATOM     24  C   UNK d   0     -18.085  -5.133 -25.801  0.00  0.00    -0.020 A 
ATOM     25  C   UNK d   0     -21.629  -6.586 -24.973  0.00  0.00     0.041 A 
ATOM     26  N   UNK d   0     -22.325  -7.063 -26.012  0.00  0.00    -0.355 N 
ATOM     27  C   UNK d   0     -22.180  -7.065 -23.765  0.00  0.00    -0.022 A 
ATOM     28  C   UNK d   0     -23.301  -7.834 -25.507  0.00  0.00     0.042 A 
ATOM     29  H   UNK d   0     -22.146  -6.837 -27.092  0.00  0.00     0.166 HD
ATOM     30  C   UNK d   0     -24.309  -8.579 -26.139  0.00  0.00     0.062 C 
ATOM     31  C   UNK d   0     -23.238  -7.856 -24.093  0.00  0.00    -0.013 A 
ATOM     32  C   UNK d   0     -24.216  -9.335 -27.296  0.00  0.00     0.066 A 
BRANCH   8  33
ATOM     33  C   UNK d   0     -24.995 -11.598 -30.087  0.00  0.00     0.151 C 
BRANCH  33  34
ATOM     34  C   UNK d   0     -24.772 -13.014 -29.745  0.00  0.00     0.143 C 
ATOM     35  O   UNK d   0     -24.481 -13.842 -30.621  0.00  0.00    -0.650 OA
BRANCH  34  36
ATOM     36  O   UNK d   0     -24.889 -13.420 -28.436  0.00  0.00    -0.776 OA
ATOM     37  H   UNK d   0     -24.615 -14.368 -28.144  0.00  0.00     0.167 HD
ENDBRANCH  34  36
ENDBRANCH  33  34
ENDBRANCH   8  33
BRANCH  31  38
ATOM     38  C   UNK d   0     -24.129  -8.600 -23.126  0.00  0.00     0.151 C 
BRANCH  38  39
ATOM     39  C   UNK d   0     -25.233  -7.796 -22.647  0.00  0.00     0.143 C 
ATOM     40  O   UNK d   0     -25.169  -7.138 -21.593  0.00  0.00    -0.650 OA
BRANCH  39  41
ATOM     41  O   UNK d   0     -26.416  -7.747 -23.383  0.00  0.00    -0.776 OA
ATOM     42  H   UNK d   0     -26.813  -6.818 -23.558  0.00  0.00     0.167 HD
ENDBRANCH  39  41
ENDBRANCH  38  39
ENDBRANCH  31  38
BRANCH  27  43
ATOM     43  C   UNK d   0     -21.749  -6.802 -22.344  0.00  0.00     0.052 C 
BRANCH  43  44
ATOM     44  C   UNK d   0     -21.668  -5.347 -22.011  0.00  0.00     0.115 C 
BRANCH  44  45
ATOM     45  C   UNK d   0     -22.659  -5.103 -20.931  0.00  0.00     0.139 C 
ATOM     46  O   UNK d   0     -22.309  -5.322 -19.745  0.00  0.00    -0.650 OA
BRANCH  45  47
ATOM     47  O   UNK d   0     -23.935  -4.644 -21.178  0.00  0.00    -0.776 OA
ATOM     48  H   UNK d   0     -24.388  -4.719 -22.103  0.00  0.00     0.167 HD
ENDBRANCH  45  47
ENDBRANCH  44  45
ENDBRANCH  43  44
ENDBRANCH  27  43
BRANCH  24  49
ATOM     49  C   UNK d   0     -17.587  -4.135 -24.839  0.00  0.00     0.052 C 
BRANCH  49  50
ATOM     50  C   UNK d   0     -16.683  -4.789 -23.826  0.00  0.00     0.115 C 
BRANCH  50  51
ATOM     51  C   UNK d   0     -15.470  -4.071 -23.456  0.00  0.00     0.139 C 
ATOM     52  O   UNK d   0     -15.485  -2.888 -23.043  0.00  0.00    -0.650 OA
BRANCH  51  53
ATOM     53  O   UNK d   0     -14.240  -4.702 -23.559  0.00  0.00    -0.776 OA
ATOM     54  H   UNK d   0     -13.478  -4.193 -23.971  0.00  0.00     0.167 HD
ENDBRANCH  51  53
ENDBRANCH  50  51
ENDBRANCH  49  50
ENDBRANCH  24  49
BRANCH  21  55
ATOM     55  C   UNK d   0     -16.048  -5.264 -27.268  0.00  0.00     0.151 C 
BRANCH  55  56
ATOM     56  C   UNK d   0     -15.022  -6.068 -26.586  0.00  0.00     0.143 C 
ATOM     57  O   UNK d   0     -15.250  -7.204 -26.125  0.00  0.00    -0.650 OA
BRANCH  56  58
ATOM     58  O   UNK d   0     -13.746  -5.521 -26.461  0.00  0.00    -0.776 OA
ATOM     59  H   UNK d   0     -13.698  -4.650 -25.902  0.00  0.00     0.167 HD
ENDBRANCH  56  58
ENDBRANCH  55  56
ENDBRANCH  21  55
BRANCH  18  60
ATOM     60  C   UNK d   0     -18.345  -7.424 -31.611  0.00  0.00     0.151 C 
BRANCH  60  61
ATOM     61  C   UNK d   0     -19.112  -6.243 -32.036  0.00  0.00     0.143 C 
ATOM     62  O   UNK d   0     -19.860  -5.554 -31.341  0.00  0.00    -0.650 OA
BRANCH  61  63
ATOM     63  O   UNK d   0     -18.956  -5.881 -33.396  0.00  0.00    -0.776 OA
ATOM     64  H   UNK d   0     -18.187  -5.308 -33.695  0.00  0.00     0.167 HD
ENDBRANCH  61  63
ENDBRANCH  60  61
ENDBRANCH  18  60
BRANCH  14  65
ATOM     65  C   UNK d   0     -20.605  -9.296 -32.384  0.00  0.00     0.052 C 
BRANCH  65  66
ATOM     66  C   UNK d   0     -21.541  -8.322 -33.006  0.00  0.00     0.115 C 
BRANCH  66  67
ATOM     67  C   UNK d   0     -22.953  -8.447 -32.780  0.00  0.00     0.139 C 
ATOM     68  O   UNK d   0     -23.477  -7.803 -31.799  0.00  0.00    -0.650 OA
BRANCH  67  69
ATOM     69  O   UNK d   0     -23.870  -9.204 -33.510  0.00  0.00    -0.776 OA
ATOM     70  H   UNK d   0     -24.586  -9.695 -32.956  0.00  0.00     0.167 HD
ENDBRANCH  67  69
ENDBRANCH  66  67
ENDBRANCH  65  66
ENDBRANCH  14  65
ENDBRANCH   6   7
ENDBRANCH   5   6
ENDBRANCH   2   5
TORSDOF 28
ENDMDL
MODEL 6
REMARK VINA RESULT:      -9.0     30.246     33.958
REMARK  28 active torsions:
REMARK  status: ('A' for Active; 'I' for Inactive)
REMARK    1  A    between atoms: C_2  and  O_3 
REMARK    2  A    between atoms: C_2  and  C_4 
REMARK    3  A    between atoms: C_4  and  C_5 
REMARK    4  A    between atoms: C_5  and  C_6 
REMARK    5  A    between atoms: C_7  and  C_8 
REMARK    6  A    between atoms: C_8  and  C_9 
REMARK    7  A    between atoms: C_9  and  O_11 
REMARK    8  A    between atoms: C_28  and  C_29 
REMARK    9  A    between atoms: C_29  and  C_30 
REMARK   10  A    between atoms: C_30  and  O_32 
REMARK   11  A    between atoms: C_33  and  C_34 
REMARK   12  A    between atoms: C_34  and  C_35 
REMARK   13  A    between atoms: C_35  and  C_36 
REMARK   14  A    between atoms: C_36  and  O_38 
REMARK   15  A    between atoms: C_39  and  C_40 
REMARK   16  A    between atoms: C_40  and  C_41 
REMARK   17  A    between atoms: C_41  and  C_42 
REMARK   18  A    between atoms: C_42  and  O_44 
REMARK   19  A    between atoms: C_45  and  C_46 
REMARK   20  A    between atoms: C_46  and  C_47 
REMARK   21  A    between atoms: C_47  and  O_49 
REMARK   22  A    between atoms: C_50  and  C_51 
REMARK   23  A    between atoms: C_51  and  C_52 
REMARK   24  A    between atoms: C_52  and  O_54 
REMARK   25  A    between atoms: C_55  and  C_56 
REMARK   26  A    between atoms: C_56  and  C_57 
REMARK   27  A    between atoms: C_57  and  C_58 
REMARK   28  A    between atoms: C_58  and  O_60 
ROOT
ATOM      1  O   UNK d   0      -1.599 -17.960  -7.161  0.00  0.00    -0.650 OA
ATOM      2  C   UNK d   0      -2.034 -17.530  -6.070  0.00  0.00     0.139 C 
ENDROOT
BRANCH   2   3
ATOM      3  O   UNK d   0      -3.369 -17.227  -5.949  0.00  0.00    -0.776 OA
ATOM      4  H   UNK d   0      -3.724 -16.302  -6.196  0.00  0.00     0.167 HD
ENDBRANCH   2   3
BRANCH   2   5
ATOM      5  C   UNK d   0      -1.109 -17.348  -4.915  0.00  0.00     0.115 C 
BRANCH   5   6
ATOM      6  C   UNK d   0      -0.477 -18.663  -4.546  0.00  0.00     0.052 C 
BRANCH   6   7
ATOM      7  C   UNK d   0      -1.279 -19.426  -3.520  0.00  0.00    -0.020 A 
ATOM      8  C   UNK d   0      -1.129 -19.416  -2.220  0.00  0.00    -0.011 A 
ATOM      9  C   UNK d   0      -2.122 -20.311  -1.650  0.00  0.00     0.067 A 
ATOM     10  C   UNK d   0      -2.496 -20.718  -0.360  0.00  0.00     0.062 C 
ATOM     11  N   UNK d   0      -2.832 -20.827  -2.675  0.00  0.00    -0.248 NA
ATOM     12  C   UNK d   0      -3.671 -21.381   0.012  0.00  0.00     0.041 A 
ATOM     13  N   UNK d   0      -4.331 -22.405  -0.563  0.00  0.00    -0.355 N 
ATOM     14  C   UNK d   0      -4.379 -20.930   1.141  0.00  0.00    -0.022 A 
ATOM     15  C   UNK d   0      -5.444 -22.609   0.168  0.00  0.00     0.042 A 
ATOM     16  H   UNK d   0      -4.007 -22.984  -1.455  0.00  0.00     0.166 HD
ATOM     17  C   UNK d   0      -6.479 -23.552   0.010  0.00  0.00     0.062 C 
ATOM     18  C   UNK d   0      -5.508 -21.703   1.244  0.00  0.00    -0.013 A 
ATOM     19  C   UNK d   0      -7.139 -23.925  -1.133  0.00  0.00     0.067 A 
ATOM     20  N   UNK d   0      -6.626 -23.504  -2.292  0.00  0.00    -0.248 NA
ATOM     21  C   UNK d   0      -8.332 -24.693  -1.446  0.00  0.00    -0.011 A 
ATOM     22  C   UNK d   0      -7.398 -23.940  -3.341  0.00  0.00     0.066 A 
ATOM     23  C   UNK d   0      -6.957 -23.605  -4.612  0.00  0.00     0.062 C 
ATOM     24  C   UNK d   0      -8.481 -24.695  -2.740  0.00  0.00    -0.020 A 
ATOM     25  C   UNK d   0      -5.768 -22.949  -4.965  0.00  0.00     0.041 A 
ATOM     26  N   UNK d   0      -5.119 -21.922  -4.402  0.00  0.00    -0.355 N 
ATOM     27  C   UNK d   0      -5.055 -23.406  -6.095  0.00  0.00    -0.022 A 
ATOM     28  C   UNK d   0      -4.014 -21.710  -5.134  0.00  0.00     0.042 A 
ATOM     29  H   UNK d   0      -5.452 -21.334  -3.512  0.00  0.00     0.166 HD
ATOM     30  C   UNK d   0      -2.981 -20.771  -4.994  0.00  0.00     0.062 C 
ATOM     31  C   UNK d   0      -3.944 -22.628  -6.209  0.00  0.00    -0.013 A 
ATOM     32  C   UNK d   0      -2.374 -20.334  -3.827  0.00  0.00     0.066 A 
BRANCH   8  33
ATOM     33  C   UNK d   0      -0.132 -18.648  -1.451  0.00  0.00     0.151 C 
BRANCH  33  34
ATOM     34  C   UNK d   0       1.133 -19.381  -1.263  0.00  0.00     0.143 C 
ATOM     35  O   UNK d   0       1.282 -20.522  -1.724  0.00  0.00    -0.650 OA
BRANCH  34  36
ATOM     36  O   UNK d   0       2.160 -18.788  -0.565  0.00  0.00    -0.776 OA
ATOM     37  H   UNK d   0       2.020 -18.430   0.389  0.00  0.00     0.167 HD
ENDBRANCH  34  36
ENDBRANCH  33  34
ENDBRANCH   8  33
BRANCH  31  38
ATOM     38  C   UNK d   0      -2.872 -22.754  -7.267  0.00  0.00     0.151 C 
BRANCH  38  39
ATOM     39  C   UNK d   0      -3.132 -21.935  -8.431  0.00  0.00     0.143 C 
ATOM     40  O   UNK d   0      -2.733 -20.760  -8.520  0.00  0.00    -0.650 OA
BRANCH  39  41
ATOM     41  O   UNK d   0      -3.854 -22.468  -9.498  0.00  0.00    -0.776 OA
ATOM     42  H   UNK d   0      -3.312 -22.919 -10.243  0.00  0.00     0.167 HD
ENDBRANCH  39  41
ENDBRANCH  38  39
ENDBRANCH  31  38
BRANCH  27  43
ATOM     43  C   UNK d   0      -5.387 -24.526  -7.049  0.00  0.00     0.052 C 
BRANCH  43  44
ATOM     44  C   UNK d   0      -6.550 -24.222  -7.936  0.00  0.00     0.115 C 
BRANCH  44  45
ATOM     45  C   UNK d   0      -7.157 -25.528  -8.303  0.00  0.00     0.139 C 
ATOM     46  O   UNK d   0      -7.940 -25.562  -9.284  0.00  0.00    -0.650 OA
BRANCH  45  47
ATOM     47  O   UNK d   0      -6.891 -26.694  -7.618  0.00  0.00    -0.776 OA
ATOM     48  H   UNK d   0      -6.245 -26.737  -6.813  0.00  0.00     0.167 HD
ENDBRANCH  45  47
ENDBRANCH  44  45
ENDBRANCH  43  44
ENDBRANCH  27  43
BRANCH  24  49
ATOM     49  C   UNK d   0      -9.541 -25.389  -3.491  0.00  0.00     0.052 C 
BRANCH  49  50
ATOM     50  C   UNK d   0      -9.139 -26.815  -3.769  0.00  0.00     0.115 C 
BRANCH  50  51
ATOM     51  C   UNK d   0      -9.039 -27.217  -5.166  0.00  0.00     0.139 C 
ATOM     52  O   UNK d   0      -9.601 -26.587  -6.093  0.00  0.00    -0.650 OA
BRANCH  51  53
ATOM     53  O   UNK d   0      -8.300 -28.340  -5.505  0.00  0.00    -0.776 OA
ATOM     54  H   UNK d   0      -7.510 -28.580  -4.932  0.00  0.00     0.167 HD
ENDBRANCH  51  53
ENDBRANCH  50  51
ENDBRANCH  49  50
ENDBRANCH  24  49
BRANCH  21  55
ATOM     55  C   UNK d   0      -9.197 -25.349  -0.421  0.00  0.00     0.151 C 
BRANCH  55  56
ATOM     56  C   UNK d   0      -8.788 -26.739  -0.163  0.00  0.00     0.143 C 
ATOM     57  O   UNK d   0      -7.638 -27.046   0.208  0.00  0.00    -0.650 OA
BRANCH  56  58
ATOM     58  O   UNK d   0      -9.740 -27.740  -0.345  0.00  0.00    -0.776 OA
ATOM     59  H   UNK d   0     -10.118 -28.147   0.529  0.00  0.00     0.167 HD
ENDBRANCH  56  58
ENDBRANCH  55  56
ENDBRANCH  21  55
BRANCH  18  60
ATOM     60  C   UNK d   0      -6.562 -21.556   2.314  0.00  0.00     0.151 C 
BRANCH  60  61
ATOM     61  C   UNK d   0      -6.933 -22.924   2.706  0.00  0.00     0.143 C 
ATOM     62  O   UNK d   0      -6.173 -23.829   3.051  0.00  0.00    -0.650 OA
BRANCH  61  63
ATOM     63  O   UNK d   0      -8.320 -23.204   2.675  0.00  0.00    -0.776 OA
ATOM     64  H   UNK d   0      -8.731 -23.706   1.907  0.00  0.00     0.167 HD
ENDBRANCH  61  63
ENDBRANCH  60  61
ENDBRANCH  18  60
BRANCH  14  65
ATOM     65  C   UNK d   0      -4.023 -19.899   2.174  0.00  0.00     0.052 C 
BRANCH  65  66
ATOM     66  C   UNK d   0      -4.455 -18.526   1.799  0.00  0.00     0.115 C 
BRANCH  66  67
ATOM     67  C   UNK d   0      -3.493 -17.593   1.285  0.00  0.00     0.139 C 
ATOM     68  O   UNK d   0      -2.717 -16.991   2.115  0.00  0.00    -0.650 OA
BRANCH  67  69
ATOM     69  O   UNK d   0      -3.278 -17.235  -0.046  0.00  0.00    -0.776 OA
ATOM     70  H   UNK d   0      -2.564 -17.784  -0.547  0.00  0.00     0.167 HD
ENDBRANCH  67  69
ENDBRANCH  66  67
ENDBRANCH  65  66
ENDBRANCH  14  65
ENDBRANCH   6   7
ENDBRANCH   5   6
ENDBRANCH   2   5
TORSDOF 28
ENDMDL
MODEL 7
REMARK VINA RESULT:      -8.9      1.851      8.616
REMARK  28 active torsions:
REMARK  status: ('A' for Active; 'I' for Inactive)
REMARK    1  A    between atoms: C_2  and  O_3 
REMARK    2  A    between atoms: C_2  and  C_4 
REMARK    3  A    between atoms: C_4  and  C_5 
REMARK    4  A    between atoms: C_5  and  C_6 
REMARK    5  A    between atoms: C_7  and  C_8 
REMARK    6  A    between atoms: C_8  and  C_9 
REMARK    7  A    between atoms: C_9  and  O_11 
REMARK    8  A    between atoms: C_28  and  C_29 
REMARK    9  A    between atoms: C_29  and  C_30 
REMARK   10  A    between atoms: C_30  and  O_32 
REMARK   11  A    between atoms: C_33  and  C_34 
REMARK   12  A    between atoms: C_34  and  C_35 
REMARK   13  A    between atoms: C_35  and  C_36 
REMARK   14  A    between atoms: C_36  and  O_38 
REMARK   15  A    between atoms: C_39  and  C_40 
REMARK   16  A    between atoms: C_40  and  C_41 
REMARK   17  A    between atoms: C_41  and  C_42 
REMARK   18  A    between atoms: C_42  and  O_44 
REMARK   19  A    between atoms: C_45  and  C_46 
REMARK   20  A    between atoms: C_46  and  C_47 
REMARK   21  A    between atoms: C_47  and  O_49 
REMARK   22  A    between atoms: C_50  and  C_51 
REMARK   23  A    between atoms: C_51  and  C_52 
REMARK   24  A    between atoms: C_52  and  O_54 
REMARK   25  A    between atoms: C_55  and  C_56 
REMARK   26  A    between atoms: C_56  and  C_57 
REMARK   27  A    between atoms: C_57  and  C_58 
REMARK   28  A    between atoms: C_58  and  O_60 
ROOT
ATOM      1  O   UNK d   0     -15.360  -5.420 -26.986  0.00  0.00    -0.650 OA
ATOM      2  C   UNK d   0     -15.020  -6.270 -27.838  0.00  0.00     0.139 C 
ENDROOT
BRANCH   2   3
ATOM      3  O   UNK d   0     -13.726  -6.277 -28.303  0.00  0.00    -0.776 OA
ATOM      4  H   UNK d   0     -13.021  -6.892 -27.891  0.00  0.00     0.167 HD
ENDBRANCH   2   3
BRANCH   2   5
ATOM      5  C   UNK d   0     -16.010  -7.264 -28.342  0.00  0.00     0.115 C 
BRANCH   5   6
ATOM      6  C   UNK d   0     -16.834  -6.658 -29.446  0.00  0.00     0.052 C 
BRANCH   6   7
ATOM      7  C   UNK d   0     -18.299  -7.006 -29.335  0.00  0.00    -0.020 A 
ATOM      8  C   UNK d   0     -19.117  -7.334 -30.302  0.00  0.00    -0.011 A 
ATOM      9  C   UNK d   0     -20.426  -7.572 -29.717  0.00  0.00     0.067 A 
ATOM     10  C   UNK d   0     -21.690  -7.962 -30.187  0.00  0.00     0.062 C 
ATOM     11  N   UNK d   0     -20.315  -7.361 -28.388  0.00  0.00    -0.248 NA
ATOM     12  C   UNK d   0     -22.774  -8.413 -29.427  0.00  0.00     0.041 A 
ATOM     13  N   UNK d   0     -23.283  -7.972 -28.260  0.00  0.00    -0.355 N 
ATOM     14  C   UNK d   0     -23.480  -9.552 -29.855  0.00  0.00    -0.022 A 
ATOM     15  C   UNK d   0     -24.288  -8.808 -27.934  0.00  0.00     0.042 A 
ATOM     16  H   UNK d   0     -22.951  -7.078 -27.688  0.00  0.00     0.166 HD
ATOM     17  C   UNK d   0     -25.152  -8.806 -26.821  0.00  0.00     0.062 C 
ATOM     18  C   UNK d   0     -24.441  -9.811 -28.910  0.00  0.00    -0.013 A 
ATOM     19  C   UNK d   0     -24.851  -8.621 -25.495  0.00  0.00     0.067 A 
ATOM     20  N   UNK d   0     -23.619  -8.191 -25.209  0.00  0.00    -0.248 NA
ATOM     21  C   UNK d   0     -25.549  -8.791 -24.232  0.00  0.00    -0.011 A 
ATOM     22  C   UNK d   0     -23.461  -8.068 -23.850  0.00  0.00     0.066 A 
ATOM     23  C   UNK d   0     -22.234  -7.591 -23.413  0.00  0.00     0.062 C 
ATOM     24  C   UNK d   0     -24.729  -8.469 -23.273  0.00  0.00    -0.020 A 
ATOM     25  C   UNK d   0     -21.162  -7.132 -24.194  0.00  0.00     0.041 A 
ATOM     26  N   UNK d   0     -20.647  -7.578 -25.346  0.00  0.00    -0.355 N 
ATOM     27  C   UNK d   0     -20.457  -5.985 -23.765  0.00  0.00    -0.022 A 
ATOM     28  C   UNK d   0     -19.639  -6.752 -25.669  0.00  0.00     0.042 A 
ATOM     29  H   UNK d   0     -20.975  -8.483 -25.913  0.00  0.00     0.166 HD
ATOM     30  C   UNK d   0     -18.766  -6.747 -26.768  0.00  0.00     0.062 C 
ATOM     31  C   UNK d   0     -19.493  -5.738 -24.693  0.00  0.00    -0.013 A 
ATOM     32  C   UNK d   0     -19.060  -7.019 -28.094  0.00  0.00     0.066 A 
BRANCH   8  33
ATOM     33  C   UNK d   0     -18.793  -7.442 -31.737  0.00  0.00     0.151 C 
BRANCH  33  34
ATOM     34  C   UNK d   0     -19.117  -6.216 -32.489  0.00  0.00     0.143 C 
ATOM     35  O   UNK d   0     -19.613  -5.233 -31.921  0.00  0.00    -0.650 OA
BRANCH  34  36
ATOM     36  O   UNK d   0     -18.866  -6.167 -33.841  0.00  0.00    -0.776 OA
ATOM     37  H   UNK d   0     -17.952  -5.861 -34.203  0.00  0.00     0.167 HD
ENDBRANCH  34  36
ENDBRANCH  33  34
ENDBRANCH   8  33
BRANCH  31  38
ATOM     38  C   UNK d   0     -18.499  -4.600 -24.664  0.00  0.00     0.151 C 
BRANCH  38  39
ATOM     39  C   UNK d   0     -17.365  -4.867 -23.805  0.00  0.00     0.143 C 
ATOM     40  O   UNK d   0     -16.560  -5.788 -24.032  0.00  0.00    -0.650 OA
BRANCH  39  41
ATOM     41  O   UNK d   0     -17.154  -4.070 -22.680  0.00  0.00    -0.776 OA
ATOM     42  H   UNK d   0     -16.967  -4.558 -21.798  0.00  0.00     0.167 HD
ENDBRANCH  39  41
ENDBRANCH  38  39
ENDBRANCH  31  38
BRANCH  27  43
ATOM     43  C   UNK d   0     -20.663  -5.139 -22.533  0.00  0.00     0.052 C 
BRANCH  43  44
ATOM     44  C   UNK d   0     -21.835  -4.218 -22.638  0.00  0.00     0.115 C 
BRANCH  44  45
ATOM     45  C   UNK d   0     -22.600  -4.360 -21.372  0.00  0.00     0.139 C 
ATOM     46  O   UNK d   0     -22.111  -5.073 -20.461  0.00  0.00    -0.650 OA
BRANCH  45  47
ATOM     47  O   UNK d   0     -23.813  -3.741 -21.159  0.00  0.00    -0.776 OA
ATOM     48  H   UNK d   0     -24.467  -4.032 -20.414  0.00  0.00     0.167 HD
ENDBRANCH  45  47
ENDBRANCH  44  45
ENDBRANCH  43  44
ENDBRANCH  27  43
BRANCH  24  49
ATOM     49  C   UNK d   0     -25.038  -8.460 -21.833  0.00  0.00     0.052 C 
BRANCH  49  50
ATOM     50  C   UNK d   0     -25.257  -7.048 -21.353  0.00  0.00     0.115 C 
BRANCH  50  51
ATOM     51  C   UNK d   0     -25.444  -6.854 -19.921  0.00  0.00     0.139 C 
ATOM     52  O   UNK d   0     -26.399  -7.363 -19.289  0.00  0.00    -0.650 OA
BRANCH  51  53
ATOM     53  O   UNK d   0     -24.542  -6.077 -19.211  0.00  0.00    -0.776 OA
ATOM     54  H   UNK d   0     -23.644  -5.893 -19.623  0.00  0.00     0.167 HD
ENDBRANCH  51  53
ENDBRANCH  50  51
ENDBRANCH  49  50
ENDBRANCH  24  49
BRANCH  21  55
ATOM     55  C   UNK d   0     -26.964  -9.252 -24.115  0.00  0.00     0.151 C 
BRANCH  55  56
ATOM     56  C   UNK d   0     -27.912  -8.128 -24.121  0.00  0.00     0.143 C 
ATOM     57  O   UNK d   0     -27.903  -7.241 -24.997  0.00  0.00    -0.650 OA
BRANCH  56  58
ATOM     58  O   UNK d   0     -28.854  -8.068 -23.094  0.00  0.00    -0.776 OA
ATOM     59  H   UNK d   0     -29.692  -8.660 -23.236  0.00  0.00     0.167 HD
ENDBRANCH  56  58
ENDBRANCH  55  56
ENDBRANCH  21  55
BRANCH  18  60
ATOM     60  C   UNK d   0     -25.423 -10.955 -28.967  0.00  0.00     0.151 C 
BRANCH  60  61
ATOM     61  C   UNK d   0     -24.668 -12.155 -28.579  0.00  0.00     0.143 C 
ATOM     62  O   UNK d   0     -23.589 -12.195 -27.986  0.00  0.00    -0.650 OA
BRANCH  61  63
ATOM     63  O   UNK d   0     -25.268 -13.387 -28.938  0.00  0.00    -0.776 OA
ATOM     64  H   UNK d   0     -26.158 -13.413 -29.402  0.00  0.00     0.167 HD
ENDBRANCH  61  63
ENDBRANCH  60  61
ENDBRANCH  18  60
BRANCH  14  65
ATOM     65  C   UNK d   0     -23.379 -10.347 -31.126  0.00  0.00     0.052 C 
BRANCH  65  66
ATOM     66  C   UNK d   0     -22.477 -11.523 -31.006  0.00  0.00     0.115 C 
BRANCH  66  67
ATOM     67  C   UNK d   0     -21.175 -11.365 -30.422  0.00  0.00     0.139 C 
ATOM     68  O   UNK d   0     -20.222 -10.914 -31.159  0.00  0.00    -0.650 OA
BRANCH  67  69
ATOM     69  O   UNK d   0     -20.787 -11.646 -29.113  0.00  0.00    -0.776 OA
ATOM     70  H   UNK d   0     -20.337 -10.872 -28.603  0.00  0.00     0.167 HD
ENDBRANCH  67  69
ENDBRANCH  66  67
ENDBRANCH  65  66
ENDBRANCH  14  65
ENDBRANCH   6   7
ENDBRANCH   5   6
ENDBRANCH   2   5
TORSDOF 28
ENDMDL
MODEL 8
REMARK VINA RESULT:      -8.9     30.415     34.046
REMARK  28 active torsions:
REMARK  status: ('A' for Active; 'I' for Inactive)
REMARK    1  A    between atoms: C_2  and  O_3 
REMARK    2  A    between atoms: C_2  and  C_4 
REMARK    3  A    between atoms: C_4  and  C_5 
REMARK    4  A    between atoms: C_5  and  C_6 
REMARK    5  A    between atoms: C_7  and  C_8 
REMARK    6  A    between atoms: C_8  and  C_9 
REMARK    7  A    between atoms: C_9  and  O_11 
REMARK    8  A    between atoms: C_28  and  C_29 
REMARK    9  A    between atoms: C_29  and  C_30 
REMARK   10  A    between atoms: C_30  and  O_32 
REMARK   11  A    between atoms: C_33  and  C_34 
REMARK   12  A    between atoms: C_34  and  C_35 
REMARK   13  A    between atoms: C_35  and  C_36 
REMARK   14  A    between atoms: C_36  and  O_38 
REMARK   15  A    between atoms: C_39  and  C_40 
REMARK   16  A    between atoms: C_40  and  C_41 
REMARK   17  A    between atoms: C_41  and  C_42 
REMARK   18  A    between atoms: C_42  and  O_44 
REMARK   19  A    between atoms: C_45  and  C_46 
REMARK   20  A    between atoms: C_46  and  C_47 
REMARK   21  A    between atoms: C_47  and  O_49 
REMARK   22  A    between atoms: C_50  and  C_51 
REMARK   23  A    between atoms: C_51  and  C_52 
REMARK   24  A    between atoms: C_52  and  O_54 
REMARK   25  A    between atoms: C_55  and  C_56 
REMARK   26  A    between atoms: C_56  and  C_57 
REMARK   27  A    between atoms: C_57  and  C_58 
REMARK   28  A    between atoms: C_58  and  O_60 
ROOT
ATOM      1  O   UNK d   0      -0.998 -22.892  -9.161  0.00  0.00    -0.650 OA
ATOM      2  C   UNK d   0      -2.131 -23.387  -9.347  0.00  0.00     0.139 C 
ENDROOT
BRANCH   2   3
ATOM      3  O   UNK d   0      -2.616 -23.499 -10.629  0.00  0.00    -0.776 OA
ATOM      4  H   UNK d   0      -1.986 -23.489 -11.433  0.00  0.00     0.167 HD
ENDBRANCH   2   3
BRANCH   2   5
ATOM      5  C   UNK d   0      -2.945 -23.851  -8.188  0.00  0.00     0.115 C 
BRANCH   5   6
ATOM      6  C   UNK d   0      -4.385 -23.458  -8.376  0.00  0.00     0.052 C 
BRANCH   6   7
ATOM      7  C   UNK d   0      -5.214 -23.675  -7.133  0.00  0.00    -0.020 A 
ATOM      8  C   UNK d   0      -6.325 -24.358  -7.024  0.00  0.00    -0.011 A 
ATOM      9  C   UNK d   0      -6.762 -24.278  -5.640  0.00  0.00     0.067 A 
ATOM     10  C   UNK d   0      -7.828 -24.789  -4.884  0.00  0.00     0.062 C 
ATOM     11  N   UNK d   0      -5.862 -23.520  -4.979  0.00  0.00    -0.248 NA
ATOM     12  C   UNK d   0      -7.933 -24.833  -3.489  0.00  0.00     0.041 A 
ATOM     13  N   UNK d   0      -7.633 -23.917  -2.549  0.00  0.00    -0.355 N 
ATOM     14  C   UNK d   0      -8.370 -26.021  -2.876  0.00  0.00    -0.022 A 
ATOM     15  C   UNK d   0      -7.861 -24.496  -1.355  0.00  0.00     0.042 A 
ATOM     16  H   UNK d   0      -7.286 -22.875  -2.726  0.00  0.00     0.166 HD
ATOM     17  C   UNK d   0      -7.712 -23.987  -0.049  0.00  0.00     0.062 C 
ATOM     18  C   UNK d   0      -8.323 -25.816  -1.520  0.00  0.00    -0.013 A 
ATOM     19  C   UNK d   0      -6.676 -23.260   0.480  0.00  0.00     0.067 A 
ATOM     20  N   UNK d   0      -5.766 -22.790  -0.378  0.00  0.00    -0.248 NA
ATOM     21  C   UNK d   0      -6.263 -22.847   1.811  0.00  0.00    -0.011 A 
ATOM     22  C   UNK d   0      -4.788 -22.101   0.296  0.00  0.00     0.066 A 
ATOM     23  C   UNK d   0      -3.795 -21.524  -0.481  0.00  0.00     0.062 C 
ATOM     24  C   UNK d   0      -5.155 -22.172   1.696  0.00  0.00    -0.020 A 
ATOM     25  C   UNK d   0      -3.714 -21.481  -1.882  0.00  0.00     0.041 A 
ATOM     26  N   UNK d   0      -3.998 -22.396  -2.816  0.00  0.00    -0.355 N 
ATOM     27  C   UNK d   0      -3.280 -20.286  -2.497  0.00  0.00    -0.022 A 
ATOM     28  C   UNK d   0      -3.764 -21.824  -4.007  0.00  0.00     0.042 A 
ATOM     29  H   UNK d   0      -4.337 -23.446  -2.636  0.00  0.00     0.166 HD
ATOM     30  C   UNK d   0      -3.898 -22.322  -5.313  0.00  0.00     0.062 C 
ATOM     31  C   UNK d   0      -3.309 -20.494  -3.841  0.00  0.00    -0.013 A 
ATOM     32  C   UNK d   0      -4.905 -23.127  -5.821  0.00  0.00     0.066 A 
BRANCH   8  33
ATOM     33  C   UNK d   0      -7.027 -25.084  -8.099  0.00  0.00     0.151 C 
BRANCH  33  34
ATOM     34  C   UNK d   0      -7.027 -26.544  -7.896  0.00  0.00     0.143 C 
ATOM     35  O   UNK d   0      -6.097 -27.103  -7.299  0.00  0.00    -0.650 OA
BRANCH  34  36
ATOM     36  O   UNK d   0      -8.074 -27.293  -8.380  0.00  0.00    -0.776 OA
ATOM     37  H   UNK d   0      -9.050 -26.992  -8.253  0.00  0.00     0.167 HD
ENDBRANCH  34  36
ENDBRANCH  33  34
ENDBRANCH   8  33
BRANCH  31  38
ATOM     38  C   UNK d   0      -2.940 -19.489  -4.907  0.00  0.00     0.151 C 
BRANCH  38  39
ATOM     39  C   UNK d   0      -1.699 -18.800  -4.624  0.00  0.00     0.143 C 
ATOM     40  O   UNK d   0      -1.591 -17.564  -4.703  0.00  0.00    -0.650 OA
BRANCH  39  41
ATOM     41  O   UNK d   0      -0.576 -19.537  -4.248  0.00  0.00    -0.776 OA
ATOM     42  H   UNK d   0      -0.035 -19.180  -3.454  0.00  0.00     0.167 HD
ENDBRANCH  39  41
ENDBRANCH  38  39
ENDBRANCH  31  38
BRANCH  27  43
ATOM     43  C   UNK d   0      -2.847 -18.986  -1.866  0.00  0.00     0.052 C 
BRANCH  43  44
ATOM     44  C   UNK d   0      -1.613 -19.116  -1.033  0.00  0.00     0.115 C 
BRANCH  44  45
ATOM     45  C   UNK d   0      -0.967 -17.778  -1.019  0.00  0.00     0.139 C 
ATOM     46  O   UNK d   0      -1.094 -17.070   0.010  0.00  0.00    -0.650 OA
BRANCH  45  47
ATOM     47  O   UNK d   0      -0.237 -17.289  -2.081  0.00  0.00    -0.776 OA
ATOM     48  H   UNK d   0       0.696 -16.860  -1.969  0.00  0.00     0.167 HD
ENDBRANCH  45  47
ENDBRANCH  44  45
ENDBRANCH  43  44
ENDBRANCH  27  43
BRANCH  24  49
ATOM     49  C   UNK d   0      -4.410 -21.534   2.795  0.00  0.00     0.052 C 
BRANCH  49  50
ATOM     50  C   UNK d   0      -4.119 -20.093   2.463  0.00  0.00     0.115 C 
BRANCH  50  51
ATOM     51  C   UNK d   0      -2.721 -19.683   2.447  0.00  0.00     0.139 C 
ATOM     52  O   UNK d   0      -1.776 -20.500   2.550  0.00  0.00    -0.650 OA
BRANCH  51  53
ATOM     53  O   UNK d   0      -2.401 -18.341   2.315  0.00  0.00    -0.776 OA
ATOM     54  H   UNK d   0      -2.643 -17.876   1.457  0.00  0.00     0.167 HD
ENDBRANCH  51  53
ENDBRANCH  50  51
ENDBRANCH  49  50
ENDBRANCH  24  49
BRANCH  21  55
ATOM     55  C   UNK d   0      -7.021 -23.165   3.057  0.00  0.00     0.151 C 
BRANCH  55  56
ATOM     56  C   UNK d   0      -8.125 -22.222   3.287  0.00  0.00     0.143 C 
ATOM     57  O   UNK d   0      -9.323 -22.539   3.149  0.00  0.00    -0.650 OA
BRANCH  56  58
ATOM     58  O   UNK d   0      -7.800 -20.923   3.674  0.00  0.00    -0.776 OA
ATOM     59  H   UNK d   0      -8.593 -20.256   3.676  0.00  0.00     0.167 HD
ENDBRANCH  56  58
ENDBRANCH  55  56
ENDBRANCH  21  55
BRANCH  18  60
ATOM     60  C   UNK d   0      -8.701 -26.839  -0.477  0.00  0.00     0.151 C 
BRANCH  60  61
ATOM     61  C   UNK d   0     -10.166 -26.782  -0.368  0.00  0.00     0.143 C 
ATOM     62  O   UNK d   0     -10.881 -25.786  -0.479  0.00  0.00    -0.650 OA
BRANCH  61  63
ATOM     63  O   UNK d   0     -10.800 -28.021  -0.107  0.00  0.00    -0.776 OA
ATOM     64  H   UNK d   0     -11.546 -28.355  -0.691  0.00  0.00     0.167 HD
ENDBRANCH  61  63
ENDBRANCH  60  61
ENDBRANCH  18  60
BRANCH  14  65
ATOM     65  C   UNK d   0      -8.916 -27.288  -3.471  0.00  0.00     0.052 C 
BRANCH  65  66
ATOM     66  C   UNK d   0     -10.237 -27.100  -4.128  0.00  0.00     0.115 C 
BRANCH  66  67
ATOM     67  C   UNK d   0     -10.596 -27.918  -5.252  0.00  0.00     0.139 C 
ATOM     68  O   UNK d   0     -11.188 -29.038  -5.032  0.00  0.00    -0.650 OA
BRANCH  67  69
ATOM     69  O   UNK d   0     -10.380 -27.653  -6.604  0.00  0.00    -0.776 OA
ATOM     70  H   UNK d   0     -10.070 -26.697  -6.829  0.00  0.00     0.167 HD
ENDBRANCH  67  69
ENDBRANCH  66  67
ENDBRANCH  65  66
ENDBRANCH  14  65
ENDBRANCH   6   7
ENDBRANCH   5   6
ENDBRANCH   2   5
TORSDOF 28
ENDMDL
MODEL 9
REMARK VINA RESULT:      -8.7     30.500     33.585
REMARK  28 active torsions:
REMARK  status: ('A' for Active; 'I' for Inactive)
REMARK    1  A    between atoms: C_2  and  O_3 
REMARK    2  A    between atoms: C_2  and  C_4 
REMARK    3  A    between atoms: C_4  and  C_5 
REMARK    4  A    between atoms: C_5  and  C_6 
REMARK    5  A    between atoms: C_7  and  C_8 
REMARK    6  A    between atoms: C_8  and  C_9 
REMARK    7  A    between atoms: C_9  and  O_11 
REMARK    8  A    between atoms: C_28  and  C_29 
REMARK    9  A    between atoms: C_29  and  C_30 
REMARK   10  A    between atoms: C_30  and  O_32 
REMARK   11  A    between atoms: C_33  and  C_34 
REMARK   12  A    between atoms: C_34  and  C_35 
REMARK   13  A    between atoms: C_35  and  C_36 
REMARK   14  A    between atoms: C_36  and  O_38 
REMARK   15  A    between atoms: C_39  and  C_40 
REMARK   16  A    between atoms: C_40  and  C_41 
REMARK   17  A    between atoms: C_41  and  C_42 
REMARK   18  A    between atoms: C_42  and  O_44 
REMARK   19  A    between atoms: C_45  and  C_46 
REMARK   20  A    between atoms: C_46  and  C_47 
REMARK   21  A    between atoms: C_47  and  O_49 
REMARK   22  A    between atoms: C_50  and  C_51 
REMARK   23  A    between atoms: C_51  and  C_52 
REMARK   24  A    between atoms: C_52  and  O_54 
REMARK   25  A    between atoms: C_55  and  C_56 
REMARK   26  A    between atoms: C_56  and  C_57 
REMARK   27  A    between atoms: C_57  and  C_58 
REMARK   28  A    between atoms: C_58  and  O_60 
ROOT
ATOM      1  O   UNK d   0      -2.110 -15.936   0.271  0.00  0.00    -0.650 OA
ATOM      2  C   UNK d   0      -2.079 -17.186   0.261  0.00  0.00     0.139 C 
ENDROOT
BRANCH   2   3
ATOM      3  O   UNK d   0      -1.056 -17.830  -0.393  0.00  0.00    -0.776 OA
ATOM      4  H   UNK d   0      -1.133 -18.815  -0.654  0.00  0.00     0.167 HD
ENDBRANCH   2   3
BRANCH   2   5
ATOM      5  C   UNK d   0      -3.144 -17.967   0.952  0.00  0.00     0.115 C 
BRANCH   5   6
ATOM      6  C   UNK d   0      -2.644 -19.348   1.280  0.00  0.00     0.052 C 
BRANCH   6   7
ATOM      7  C   UNK d   0      -3.683 -20.416   1.032  0.00  0.00    -0.020 A 
ATOM      8  C   UNK d   0      -4.436 -21.016   1.917  0.00  0.00    -0.011 A 
ATOM      9  C   UNK d   0      -5.273 -21.973   1.213  0.00  0.00     0.067 A 
ATOM     10  C   UNK d   0      -6.279 -22.888   1.562  0.00  0.00     0.062 C 
ATOM     11  N   UNK d   0      -4.959 -21.892  -0.097  0.00  0.00    -0.248 NA
ATOM     12  C   UNK d   0      -7.174 -23.532   0.700  0.00  0.00     0.041 A 
ATOM     13  N   UNK d   0      -6.987 -24.111  -0.501  0.00  0.00    -0.355 N 
ATOM     14  C   UNK d   0      -8.536 -23.583   1.048  0.00  0.00    -0.022 A 
ATOM     15  C   UNK d   0      -8.197 -24.520  -0.928  0.00  0.00     0.042 A 
ATOM     16  H   UNK d   0      -6.017 -24.245  -1.028  0.00  0.00     0.166 HD
ATOM     17  C   UNK d   0      -8.571 -25.182  -2.114  0.00  0.00     0.062 C 
ATOM     18  C   UNK d   0      -9.193 -24.206   0.016  0.00  0.00    -0.013 A 
ATOM     19  C   UNK d   0      -8.182 -24.926  -3.405  0.00  0.00     0.067 A 
ATOM     20  N   UNK d   0      -7.169 -24.072  -3.572  0.00  0.00    -0.248 NA
ATOM     21  C   UNK d   0      -8.610 -25.348  -4.728  0.00  0.00    -0.011 A 
ATOM     22  C   UNK d   0      -6.904 -23.904  -4.910  0.00  0.00     0.066 A 
ATOM     23  C   UNK d   0      -5.844 -23.067  -5.228  0.00  0.00     0.062 C 
ATOM     24  C   UNK d   0      -7.861 -24.743  -5.604  0.00  0.00    -0.020 A 
ATOM     25  C   UNK d   0      -4.949 -22.440  -4.347  0.00  0.00     0.041 A 
ATOM     26  N   UNK d   0      -5.137 -21.851  -3.160  0.00  0.00    -0.355 N 
ATOM     27  C   UNK d   0      -3.581 -22.394  -4.695  0.00  0.00    -0.022 A 
ATOM     28  C   UNK d   0      -3.934 -21.435  -2.736  0.00  0.00     0.042 A 
ATOM     29  H   UNK d   0      -6.115 -21.708  -2.637  0.00  0.00     0.166 HD
ATOM     30  C   UNK d   0      -3.549 -20.767  -1.563  0.00  0.00     0.062 C 
ATOM     31  C   UNK d   0      -2.932 -21.760  -3.681  0.00  0.00    -0.013 A 
ATOM     32  C   UNK d   0      -4.009 -20.973  -0.272  0.00  0.00     0.066 A 
BRANCH   8  33
ATOM     33  C   UNK d   0      -4.447 -20.785   3.374  0.00  0.00     0.151 C 
BRANCH  33  34
ATOM     34  C   UNK d   0      -5.547 -19.902   3.803  0.00  0.00     0.143 C 
ATOM     35  O   UNK d   0      -5.607 -18.726   3.417  0.00  0.00    -0.650 OA
BRANCH  34  36
ATOM     36  O   UNK d   0      -6.519 -20.394   4.643  0.00  0.00    -0.776 OA
ATOM     37  H   UNK d   0      -7.396 -19.880   4.805  0.00  0.00     0.167 HD
ENDBRANCH  34  36
ENDBRANCH  33  34
ENDBRANCH   8  33
BRANCH  31  38
ATOM     38  C   UNK d   0      -1.447 -21.490  -3.604  0.00  0.00     0.151 C 
BRANCH  38  39
ATOM     39  C   UNK d   0      -0.711 -22.572  -2.985  0.00  0.00     0.143 C 
ATOM     40  O   UNK d   0      -0.889 -23.762  -3.296  0.00  0.00    -0.650 OA
BRANCH  39  41
ATOM     41  O   UNK d   0       0.236 -22.283  -2.003  0.00  0.00    -0.776 OA
ATOM     42  H   UNK d   0       0.014 -22.577  -1.047  0.00  0.00     0.167 HD
ENDBRANCH  39  41
ENDBRANCH  38  39
ENDBRANCH  31  38
BRANCH  27  43
ATOM     43  C   UNK d   0      -2.888 -22.916  -5.928  0.00  0.00     0.052 C 
BRANCH  43  44
ATOM     44  C   UNK d   0      -2.768 -21.897  -7.015  0.00  0.00     0.115 C 
BRANCH  44  45
ATOM     45  C   UNK d   0      -2.870 -22.635  -8.301  0.00  0.00     0.139 C 
ATOM     46  O   UNK d   0      -1.969 -23.464  -8.581  0.00  0.00    -0.650 OA
BRANCH  45  47
ATOM     47  O   UNK d   0      -3.908 -22.450  -9.188  0.00  0.00    -0.776 OA
ATOM     48  H   UNK d   0      -4.901 -22.514  -8.910  0.00  0.00     0.167 HD
ENDBRANCH  45  47
ENDBRANCH  44  45
ENDBRANCH  43  44
ENDBRANCH  27  43
BRANCH  24  49
ATOM     49  C   UNK d   0      -7.926 -24.911  -7.066  0.00  0.00     0.052 C 
BRANCH  49  50
ATOM     50  C   UNK d   0      -6.803 -25.796  -7.543  0.00  0.00     0.115 C 
BRANCH  50  51
ATOM     51  C   UNK d   0      -7.146 -27.158  -7.926  0.00  0.00     0.139 C 
ATOM     52  O   UNK d   0      -7.740 -27.432  -8.996  0.00  0.00    -0.650 OA
BRANCH  51  53
ATOM     53  O   UNK d   0      -6.815 -28.211  -7.086  0.00  0.00    -0.776 OA
ATOM     54  H   UNK d   0      -7.211 -28.225  -6.162  0.00  0.00     0.167 HD
ENDBRANCH  51  53
ENDBRANCH  50  51
ENDBRANCH  49  50
ENDBRANCH  24  49
BRANCH  21  55
ATOM     55  C   UNK d   0      -9.719 -26.314  -4.978  0.00  0.00     0.151 C 
BRANCH  55  56
ATOM     56  C   UNK d   0      -9.458 -27.625  -4.364  0.00  0.00     0.143 C 
ATOM     57  O   UNK d   0      -8.579 -28.404  -4.782  0.00  0.00    -0.650 OA
BRANCH  56  58
ATOM     58  O   UNK d   0     -10.236 -27.994  -3.267  0.00  0.00    -0.776 OA
ATOM     59  H   UNK d   0      -9.735 -28.537  -2.540  0.00  0.00     0.167 HD
ENDBRANCH  56  58
ENDBRANCH  55  56
ENDBRANCH  21  55
BRANCH  18  60
ATOM     60  C   UNK d   0     -10.678 -24.465  -0.032  0.00  0.00     0.151 C 
BRANCH  60  61
ATOM     61  C   UNK d   0     -11.277 -23.272  -0.649  0.00  0.00     0.143 C 
ATOM     62  O   UNK d   0     -11.207 -22.934  -1.831  0.00  0.00    -0.650 OA
BRANCH  61  63
ATOM     63  O   UNK d   0     -12.008 -22.439   0.232  0.00  0.00    -0.776 OA
ATOM     64  H   UNK d   0     -11.738 -22.341   1.195  0.00  0.00     0.167 HD
ENDBRANCH  61  63
ENDBRANCH  60  61
ENDBRANCH  18  60
BRANCH  14  65
ATOM     65  C   UNK d   0      -9.242 -23.179   2.311  0.00  0.00     0.052 C 
BRANCH  65  66
ATOM     66  C   UNK d   0      -9.365 -21.704   2.463  0.00  0.00     0.115 C 
BRANCH  66  67
ATOM     67  C   UNK d   0      -9.814 -21.152   3.710  0.00  0.00     0.139 C 
ATOM     68  O   UNK d   0     -10.738 -21.769   4.357  0.00  0.00    -0.650 OA
BRANCH  67  69
ATOM     69  O   UNK d   0      -9.366 -19.991   4.340  0.00  0.00    -0.776 OA
ATOM     70  H   UNK d   0      -9.308 -20.033   5.367  0.00  0.00     0.167 HD
ENDBRANCH  67  69
ENDBRANCH  66  67
ENDBRANCH  65  66
ENDBRANCH  14  65
ENDBRANCH   6   7
ENDBRANCH   5   6
ENDBRANCH   2   5
TORSDOF 28
ENDMDL
MODEL 10
REMARK VINA RESULT:      -8.5     30.355     34.117
REMARK  28 active torsions:
REMARK  status: ('A' for Active; 'I' for Inactive)
REMARK    1  A    between atoms: C_2  and  O_3 
REMARK    2  A    between atoms: C_2  and  C_4 
REMARK    3  A    between atoms: C_4  and  C_5 
REMARK    4  A    between atoms: C_5  and  C_6 
REMARK    5  A    between atoms: C_7  and  C_8 
REMARK    6  A    between atoms: C_8  and  C_9 
REMARK    7  A    between atoms: C_9  and  O_11 
REMARK    8  A    between atoms: C_28  and  C_29 
REMARK    9  A    between atoms: C_29  and  C_30 
REMARK   10  A    between atoms: C_30  and  O_32 
REMARK   11  A    between atoms: C_33  and  C_34 
REMARK   12  A    between atoms: C_34  and  C_35 
REMARK   13  A    between atoms: C_35  and  C_36 
REMARK   14  A    between atoms: C_36  and  O_38 
REMARK   15  A    between atoms: C_39  and  C_40 
REMARK   16  A    between atoms: C_40  and  C_41 
REMARK   17  A    between atoms: C_41  and  C_42 
REMARK   18  A    between atoms: C_42  and  O_44 
REMARK   19  A    between atoms: C_45  and  C_46 
REMARK   20  A    between atoms: C_46  and  C_47 
REMARK   21  A    between atoms: C_47  and  O_49 
REMARK   22  A    between atoms: C_50  and  C_51 
REMARK   23  A    between atoms: C_51  and  C_52 
REMARK   24  A    between atoms: C_52  and  O_54 
REMARK   25  A    between atoms: C_55  and  C_56 
REMARK   26  A    between atoms: C_56  and  C_57 
REMARK   27  A    between atoms: C_57  and  C_58 
REMARK   28  A    between atoms: C_58  and  O_60 
ROOT
ATOM      1  O   UNK d   0       1.517 -15.418  -0.897  0.00  0.00    -0.650 OA
ATOM      2  C   UNK d   0       1.366 -16.656  -0.793  0.00  0.00     0.139 C 
ENDROOT
BRANCH   2   3
ATOM      3  O   UNK d   0       2.356 -17.409  -0.209  0.00  0.00    -0.776 OA
ATOM      4  H   UNK d   0       3.296 -17.445  -0.608  0.00  0.00     0.167 HD
ENDBRANCH   2   3
BRANCH   2   5
ATOM      5  C   UNK d   0       0.123 -17.302  -1.301  0.00  0.00     0.115 C 
BRANCH   5   6
ATOM      6  C   UNK d   0       0.391 -18.742  -1.644  0.00  0.00     0.052 C 
BRANCH   6   7
ATOM      7  C   UNK d   0      -0.758 -19.388  -2.380  0.00  0.00    -0.020 A 
ATOM      8  C   UNK d   0      -0.955 -19.430  -3.673  0.00  0.00    -0.011 A 
ATOM      9  C   UNK d   0      -2.195 -20.150  -3.911  0.00  0.00     0.067 A 
ATOM     10  C   UNK d   0      -2.936 -20.546  -5.035  0.00  0.00     0.062 C 
ATOM     11  N   UNK d   0      -2.690 -20.505  -2.707  0.00  0.00    -0.248 NA
ATOM     12  C   UNK d   0      -3.975 -21.483  -5.078  0.00  0.00     0.041 A 
ATOM     13  N   UNK d   0      -5.016 -21.690  -4.250  0.00  0.00    -0.355 N 
ATOM     14  C   UNK d   0      -3.979 -22.448  -6.102  0.00  0.00    -0.022 A 
ATOM     15  C   UNK d   0      -5.677 -22.766  -4.717  0.00  0.00     0.042 A 
ATOM     16  H   UNK d   0      -5.290 -21.076  -3.364  0.00  0.00     0.166 HD
ATOM     17  C   UNK d   0      -6.834 -23.409  -4.234  0.00  0.00     0.062 C 
ATOM     18  C   UNK d   0      -5.056 -23.269  -5.877  0.00  0.00    -0.013 A 
ATOM     19  C   UNK d   0      -7.157 -23.748  -2.945  0.00  0.00     0.067 A 
ATOM     20  N   UNK d   0      -6.388 -23.244  -1.976  0.00  0.00    -0.248 NA
ATOM     21  C   UNK d   0      -8.167 -24.573  -2.303  0.00  0.00    -0.011 A 
ATOM     22  C   UNK d   0      -6.821 -23.680  -0.748  0.00  0.00     0.066 A 
ATOM     23  C   UNK d   0      -6.131 -23.200   0.355  0.00  0.00     0.062 C 
ATOM     24  C   UNK d   0      -7.963 -24.532  -1.018  0.00  0.00    -0.020 A 
ATOM     25  C   UNK d   0      -5.099 -22.250   0.378  0.00  0.00     0.041 A 
ATOM     26  N   UNK d   0      -4.055 -22.053  -0.437  0.00  0.00    -0.355 N 
ATOM     27  C   UNK d   0      -5.098 -21.279   1.403  0.00  0.00    -0.022 A 
ATOM     28  C   UNK d   0      -3.390 -20.986   0.032  0.00  0.00     0.042 A 
ATOM     29  H   UNK d   0      -3.775 -22.677  -1.321  0.00  0.00     0.166 HD
ATOM     30  C   UNK d   0      -2.233 -20.342  -0.433  0.00  0.00     0.062 C 
ATOM     31  C   UNK d   0      -4.020 -20.475   1.192  0.00  0.00    -0.013 A 
ATOM     32  C   UNK d   0      -1.871 -20.077  -1.745  0.00  0.00     0.066 A 
BRANCH   8  33
ATOM     33  C   UNK d   0      -0.091 -18.852  -4.719  0.00  0.00     0.151 C 
BRANCH  33  34
ATOM     34  C   UNK d   0      -0.679 -17.656  -5.349  0.00  0.00     0.143 C 
ATOM     35  O   UNK d   0      -1.358 -17.748  -6.381  0.00  0.00    -0.650 OA
BRANCH  34  36
ATOM     36  O   UNK d   0      -0.468 -16.421  -4.780  0.00  0.00    -0.776 OA
ATOM     37  H   UNK d   0      -0.200 -16.327  -3.791  0.00  0.00     0.167 HD
ENDBRANCH  34  36
ENDBRANCH  33  34
ENDBRANCH   8  33
BRANCH  31  38
ATOM     38  C   UNK d   0      -3.618 -19.284   2.031  0.00  0.00     0.151 C 
BRANCH  38  39
ATOM     39  C   UNK d   0      -4.217 -18.048   1.574  0.00  0.00     0.143 C 
ATOM     40  O   UNK d   0      -4.123 -17.658   0.397  0.00  0.00    -0.650 OA
BRANCH  39  41
ATOM     41  O   UNK d   0      -4.926 -17.255   2.476  0.00  0.00    -0.776 OA
ATOM     42  H   UNK d   0      -5.949 -17.287   2.412  0.00  0.00     0.167 HD
ENDBRANCH  39  41
ENDBRANCH  38  39
ENDBRANCH  31  38
BRANCH  27  43
ATOM     43  C   UNK d   0      -6.060 -21.095   2.550  0.00  0.00     0.052 C 
BRANCH  43  44
ATOM     44  C   UNK d   0      -7.343 -20.443   2.146  0.00  0.00     0.115 C 
BRANCH  44  45
ATOM     45  C   UNK d   0      -7.379 -19.122   2.825  0.00  0.00     0.139 C 
ATOM     46  O   UNK d   0      -7.903 -18.157   2.215  0.00  0.00    -0.650 OA
BRANCH  45  47
ATOM     47  O   UNK d   0      -6.871 -18.917   4.090  0.00  0.00    -0.776 OA
ATOM     48  H   UNK d   0      -6.919 -19.630   4.835  0.00  0.00     0.167 HD
ENDBRANCH  45  47
ENDBRANCH  44  45
ENDBRANCH  43  44
ENDBRANCH  27  43
BRANCH  24  49
ATOM     49  C   UNK d   0      -8.779 -25.196   0.012  0.00  0.00     0.052 C 
BRANCH  49  50
ATOM     50  C   UNK d   0      -7.894 -25.885   1.019  0.00  0.00     0.115 C 
BRANCH  50  51
ATOM     51  C   UNK d   0      -6.823 -26.724   0.499  0.00  0.00     0.139 C 
ATOM     52  O   UNK d   0      -5.630 -26.601   0.863  0.00  0.00    -0.650 OA
BRANCH  51  53
ATOM     53  O   UNK d   0      -7.112 -27.702  -0.440  0.00  0.00    -0.776 OA
ATOM     54  H   UNK d   0      -6.745 -27.593  -1.369  0.00  0.00     0.167 HD
ENDBRANCH  51  53
ENDBRANCH  50  51
ENDBRANCH  49  50
ENDBRANCH  24  49
BRANCH  21  55
ATOM     55  C   UNK d   0      -9.234 -25.311  -3.041  0.00  0.00     0.151 C 
BRANCH  55  56
ATOM     56  C   UNK d   0      -9.226 -26.749  -2.730  0.00  0.00     0.143 C 
ATOM     57  O   UNK d   0     -10.206 -27.337  -2.232  0.00  0.00    -0.650 OA
BRANCH  56  58
ATOM     58  O   UNK d   0      -8.065 -27.467  -3.010  0.00  0.00    -0.776 OA
ATOM     59  H   UNK d   0      -8.113 -28.478  -2.786  0.00  0.00     0.167 HD
ENDBRANCH  56  58
ENDBRANCH  55  56
ENDBRANCH  21  55
BRANCH  18  60
ATOM     60  C   UNK d   0      -5.436 -24.450  -6.735  0.00  0.00     0.151 C 
BRANCH  60  61
ATOM     61  C   UNK d   0      -6.418 -23.945  -7.707  0.00  0.00     0.143 C 
ATOM     62  O   UNK d   0      -6.195 -23.556  -8.853  0.00  0.00    -0.650 OA
BRANCH  61  63
ATOM     63  O   UNK d   0      -7.757 -23.915  -7.249  0.00  0.00    -0.776 OA
ATOM     64  H   UNK d   0      -8.149 -23.081  -6.847  0.00  0.00     0.167 HD
ENDBRANCH  61  63
ENDBRANCH  60  61
ENDBRANCH  18  60
BRANCH  14  65
ATOM     65  C   UNK d   0      -3.110 -22.591  -7.319  0.00  0.00     0.052 C 
BRANCH  65  66
ATOM     66  C   UNK d   0      -3.410 -21.583  -8.370  0.00  0.00     0.115 C 
BRANCH  66  67
ATOM     67  C   UNK d   0      -2.469 -20.532  -8.639  0.00  0.00     0.139 C 
ATOM     68  O   UNK d   0      -1.232 -20.842  -8.798  0.00  0.00    -0.650 OA
BRANCH  67  69
ATOM     69  O   UNK d   0      -2.726 -19.166  -8.753  0.00  0.00    -0.776 OA
ATOM     70  H   UNK d   0      -3.596 -18.913  -9.243  0.00  0.00     0.167 HD
ENDBRANCH  67  69
ENDBRANCH  66  67
ENDBRANCH  65  66
ENDBRANCH  14  65
ENDBRANCH   6   7
ENDBRANCH   5   6
ENDBRANCH   2   5
TORSDOF 28
ENDMDL
MODEL 11
REMARK VINA RESULT:      -8.5      2.427      8.076
REMARK  28 active torsions:
REMARK  status: ('A' for Active; 'I' for Inactive)
REMARK    1  A    between atoms: C_2  and  O_3 
REMARK    2  A    between atoms: C_2  and  C_4 
REMARK    3  A    between atoms: C_4  and  C_5 
REMARK    4  A    between atoms: C_5  and  C_6 
REMARK    5  A    between atoms: C_7  and  C_8 
REMARK    6  A    between atoms: C_8  and  C_9 
REMARK    7  A    between atoms: C_9  and  O_11 
REMARK    8  A    between atoms: C_28  and  C_29 
REMARK    9  A    between atoms: C_29  and  C_30 
REMARK   10  A    between atoms: C_30  and  O_32 
REMARK   11  A    between atoms: C_33  and  C_34 
REMARK   12  A    between atoms: C_34  and  C_35 
REMARK   13  A    between atoms: C_35  and  C_36 
REMARK   14  A    between atoms: C_36  and  O_38 
REMARK   15  A    between atoms: C_39  and  C_40 
REMARK   16  A    between atoms: C_40  and  C_41 
REMARK   17  A    between atoms: C_41  and  C_42 
REMARK   18  A    between atoms: C_42  and  O_44 
REMARK   19  A    between atoms: C_45  and  C_46 
REMARK   20  A    between atoms: C_46  and  C_47 
REMARK   21  A    between atoms: C_47  and  O_49 
REMARK   22  A    between atoms: C_50  and  C_51 
REMARK   23  A    between atoms: C_51  and  C_52 
REMARK   24  A    between atoms: C_52  and  O_54 
REMARK   25  A    between atoms: C_55  and  C_56 
REMARK   26  A    between atoms: C_56  and  C_57 
REMARK   27  A    between atoms: C_57  and  C_58 
REMARK   28  A    between atoms: C_58  and  O_60 
ROOT
ATOM      1  O   UNK d   0     -24.915 -14.473 -30.054  0.00  0.00    -0.650 OA
ATOM      2  C   UNK d   0     -24.035 -14.182 -30.895  0.00  0.00     0.139 C 
ENDROOT
BRANCH   2   3
ATOM      3  O   UNK d   0     -23.513 -15.170 -31.693  0.00  0.00    -0.776 OA
ATOM      4  H   UNK d   0     -22.679 -15.005 -32.260  0.00  0.00     0.167 HD
ENDBRANCH   2   3
BRANCH   2   5
ATOM      5  C   UNK d   0     -23.561 -12.775 -31.024  0.00  0.00     0.115 C 
BRANCH   5   6
ATOM      6  C   UNK d   0     -24.663 -11.820 -30.653  0.00  0.00     0.052 C 
BRANCH   6   7
ATOM      7  C   UNK d   0     -24.249 -10.845 -29.577  0.00  0.00    -0.020 A 
ATOM      8  C   UNK d   0     -25.004 -10.309 -28.652  0.00  0.00    -0.011 A 
ATOM      9  C   UNK d   0     -24.170  -9.429 -27.851  0.00  0.00     0.067 A 
ATOM     10  C   UNK d   0     -24.353  -8.602 -26.732  0.00  0.00     0.062 C 
ATOM     11  N   UNK d   0     -22.922  -9.486 -28.362  0.00  0.00    -0.248 NA
ATOM     12  C   UNK d   0     -23.359  -8.039 -25.923  0.00  0.00     0.041 A 
ATOM     13  N   UNK d   0     -22.190  -7.449 -26.237  0.00  0.00    -0.355 N 
ATOM     14  C   UNK d   0     -23.501  -8.104 -24.525  0.00  0.00    -0.022 A 
ATOM     15  C   UNK d   0     -21.583  -7.146 -25.074  0.00  0.00     0.042 A 
ATOM     16  H   UNK d   0     -21.810  -7.234 -27.260  0.00  0.00     0.166 HD
ATOM     17  C   UNK d   0     -20.345  -6.520 -24.826  0.00  0.00     0.062 C 
ATOM     18  C   UNK d   0     -22.375  -7.542 -23.979  0.00  0.00    -0.013 A 
ATOM     19  C   UNK d   0     -19.130  -6.746 -25.422  0.00  0.00     0.067 A 
ATOM     20  N   UNK d   0     -19.126  -7.510 -26.517  0.00  0.00    -0.248 NA
ATOM     21  C   UNK d   0     -17.752  -6.365 -25.161  0.00  0.00    -0.011 A 
ATOM     22  C   UNK d   0     -17.846  -7.658 -26.990  0.00  0.00     0.066 A 
ATOM     23  C   UNK d   0     -17.700  -8.402 -28.152  0.00  0.00     0.062 C 
ATOM     24  C   UNK d   0     -17.005  -6.906 -26.080  0.00  0.00    -0.020 A 
ATOM     25  C   UNK d   0     -18.712  -8.949 -28.956  0.00  0.00     0.041 A 
ATOM     26  N   UNK d   0     -19.867  -9.548 -28.644  0.00  0.00    -0.355 N 
ATOM     27  C   UNK d   0     -18.571  -8.879 -30.359  0.00  0.00    -0.022 A 
ATOM     28  C   UNK d   0     -20.470  -9.860 -29.802  0.00  0.00     0.042 A 
ATOM     29  H   UNK d   0     -20.242  -9.774 -27.616  0.00  0.00     0.166 HD
ATOM     30  C   UNK d   0     -21.697 -10.490 -30.064  0.00  0.00     0.062 C 
ATOM     31  C   UNK d   0     -19.679  -9.452 -30.902  0.00  0.00    -0.013 A 
ATOM     32  C   UNK d   0     -22.903 -10.321 -29.402  0.00  0.00     0.066 A 
BRANCH   8  33
ATOM     33  C   UNK d   0     -26.446 -10.538 -28.445  0.00  0.00     0.151 C 
BRANCH  33  34
ATOM     34  C   UNK d   0     -26.720 -11.670 -27.541  0.00  0.00     0.143 C 
ATOM     35  O   UNK d   0     -27.259 -11.489 -26.440  0.00  0.00    -0.650 OA
BRANCH  34  36
ATOM     36  O   UNK d   0     -26.371 -12.943 -27.928  0.00  0.00    -0.776 OA
ATOM     37  H   UNK d   0     -26.364 -13.722 -27.256  0.00  0.00     0.167 HD
ENDBRANCH  34  36
ENDBRANCH  33  34
ENDBRANCH   8  33
BRANCH  31  38
ATOM     38  C   UNK d   0     -19.978  -9.594 -32.377  0.00  0.00     0.151 C 
BRANCH  38  39
ATOM     39  C   UNK d   0     -21.067  -8.747 -32.813  0.00  0.00     0.143 C 
ATOM     40  O   UNK d   0     -21.038  -7.510 -32.692  0.00  0.00    -0.650 OA
BRANCH  39  41
ATOM     41  O   UNK d   0     -22.196  -9.325 -33.393  0.00  0.00    -0.776 OA
ATOM     42  H   UNK d   0     -22.230 -10.349 -33.417  0.00  0.00     0.167 HD
ENDBRANCH  39  41
ENDBRANCH  38  39
ENDBRANCH  31  38
BRANCH  27  43
ATOM     43  C   UNK d   0     -17.446  -8.302 -31.182  0.00  0.00     0.052 C 
BRANCH  43  44
ATOM     44  C   UNK d   0     -17.758  -6.954 -31.747  0.00  0.00     0.115 C 
BRANCH  44  45
ATOM     45  C   UNK d   0     -17.594  -7.063 -33.220  0.00  0.00     0.139 C 
ATOM     46  O   UNK d   0     -16.522  -7.546 -33.662  0.00  0.00    -0.650 OA
BRANCH  45  47
ATOM     47  O   UNK d   0     -18.565  -6.664 -34.111  0.00  0.00    -0.776 OA
ATOM     48  H   UNK d   0     -19.575  -6.729 -33.906  0.00  0.00     0.167 HD
ENDBRANCH  45  47
ENDBRANCH  44  45
ENDBRANCH  43  44
ENDBRANCH  27  43
BRANCH  24  49
ATOM     49  C   UNK d   0     -15.547  -6.747 -26.218  0.00  0.00     0.052 C 
BRANCH  49  50
ATOM     50  C   UNK d   0     -14.879  -6.842 -24.871  0.00  0.00     0.115 C 
BRANCH  50  51
ATOM     51  C   UNK d   0     -13.847  -5.859 -24.569  0.00  0.00     0.139 C 
ATOM     52  O   UNK d   0     -12.925  -6.076 -23.748  0.00  0.00    -0.650 OA
BRANCH  51  53
ATOM     53  O   UNK d   0     -13.868  -4.626 -25.203  0.00  0.00    -0.776 OA
ATOM     54  H   UNK d   0     -14.683  -4.379 -25.736  0.00  0.00     0.167 HD
ENDBRANCH  51  53
ENDBRANCH  50  51
ENDBRANCH  49  50
ENDBRANCH  24  49
BRANCH  21  55
ATOM     55  C   UNK d   0     -17.326  -5.497 -24.024  0.00  0.00     0.151 C 
BRANCH  55  56
ATOM     56  C   UNK d   0     -17.497  -4.068 -24.326  0.00  0.00     0.143 C 
ATOM     57  O   UNK d   0     -18.254  -3.325 -23.671  0.00  0.00    -0.650 OA
BRANCH  56  58
ATOM     58  O   UNK d   0     -16.774  -3.539 -25.394  0.00  0.00    -0.776 OA
ATOM     59  H   UNK d   0     -16.671  -4.173 -26.208  0.00  0.00     0.167 HD
ENDBRANCH  56  58
ENDBRANCH  55  56
ENDBRANCH  21  55
BRANCH  18  60
ATOM     60  C   UNK d   0     -22.104  -7.410 -22.500  0.00  0.00     0.151 C 
BRANCH  60  61
ATOM     61  C   UNK d   0     -22.088  -5.967 -22.219  0.00  0.00     0.143 C 
ATOM     62  O   UNK d   0     -22.470  -5.062 -22.962  0.00  0.00    -0.650 OA
BRANCH  61  63
ATOM     63  O   UNK d   0     -21.573  -5.606 -20.951  0.00  0.00    -0.776 OA
ATOM     64  H   UNK d   0     -21.064  -6.266 -20.391  0.00  0.00     0.167 HD
ENDBRANCH  61  63
ENDBRANCH  60  61
ENDBRANCH  18  60
BRANCH  14  65
ATOM     65  C   UNK d   0     -24.653  -8.564 -23.677  0.00  0.00     0.052 C 
BRANCH  65  66
ATOM     66  C   UNK d   0     -25.885  -8.835 -24.465  0.00  0.00     0.115 C 
BRANCH  66  67
ATOM     67  C   UNK d   0     -27.085  -8.098 -24.186  0.00  0.00     0.139 C 
ATOM     68  O   UNK d   0     -27.685  -7.511 -25.159  0.00  0.00    -0.650 OA
BRANCH  67  69
ATOM     69  O   UNK d   0     -27.713  -7.926 -22.953  0.00  0.00    -0.776 OA
ATOM     70  H   UNK d   0     -28.544  -8.512 -22.787  0.00  0.00     0.167 HD
ENDBRANCH  67  69
ENDBRANCH  66  67
ENDBRANCH  65  66
ENDBRANCH  14  65
ENDBRANCH   6   7
ENDBRANCH   5   6
ENDBRANCH   2   5
TORSDOF 28
ENDMDL
MODEL 12
REMARK VINA RESULT:      -8.3     30.528     34.840
REMARK  28 active torsions:
REMARK  status: ('A' for Active; 'I' for Inactive)
REMARK    1  A    between atoms: C_2  and  O_3 
REMARK    2  A    between atoms: C_2  and  C_4 
REMARK    3  A    between atoms: C_4  and  C_5 
REMARK    4  A    between atoms: C_5  and  C_6 
REMARK    5  A    between atoms: C_7  and  C_8 
REMARK    6  A    between atoms: C_8  and  C_9 
REMARK    7  A    between atoms: C_9  and  O_11 
REMARK    8  A    between atoms: C_28  and  C_29 
REMARK    9  A    between atoms: C_29  and  C_30 
REMARK   10  A    between atoms: C_30  and  O_32 
REMARK   11  A    between atoms: C_33  and  C_34 
REMARK   12  A    between atoms: C_34  and  C_35 
REMARK   13  A    between atoms: C_35  and  C_36 
REMARK   14  A    between atoms: C_36  and  O_38 
REMARK   15  A    between atoms: C_39  and  C_40 
REMARK   16  A    between atoms: C_40  and  C_41 
REMARK   17  A    between atoms: C_41  and  C_42 
REMARK   18  A    between atoms: C_42  and  O_44 
REMARK   19  A    between atoms: C_45  and  C_46 
REMARK   20  A    between atoms: C_46  and  C_47 
REMARK   21  A    between atoms: C_47  and  O_49 
REMARK   22  A    between atoms: C_50  and  C_51 
REMARK   23  A    between atoms: C_51  and  C_52 
REMARK   24  A    between atoms: C_52  and  O_54 
REMARK   25  A    between atoms: C_55  and  C_56 
REMARK   26  A    between atoms: C_56  and  C_57 
REMARK   27  A    between atoms: C_57  and  C_58 
REMARK   28  A    between atoms: C_58  and  O_60 
ROOT
ATOM      1  O   UNK d   0      -9.201 -26.398  -7.714  0.00  0.00    -0.650 OA
ATOM      2  C   UNK d   0      -7.999 -26.677  -7.508  0.00  0.00     0.139 C 
ENDROOT
BRANCH   2   3
ATOM      3  O   UNK d   0      -7.682 -27.670  -6.612  0.00  0.00    -0.776 OA
ATOM      4  H   UNK d   0      -7.524 -27.459  -5.625  0.00  0.00     0.167 HD
ENDBRANCH   2   3
BRANCH   2   5
ATOM      5  C   UNK d   0      -6.924 -25.937  -8.228  0.00  0.00     0.115 C 
BRANCH   5   6
ATOM      6  C   UNK d   0      -7.074 -24.457  -8.001  0.00  0.00     0.052 C 
BRANCH   6   7
ATOM      7  C   UNK d   0      -6.172 -23.943  -6.905  0.00  0.00    -0.020 A 
ATOM      8  C   UNK d   0      -4.991 -23.393  -7.035  0.00  0.00    -0.011 A 
ATOM      9  C   UNK d   0      -4.503 -23.067  -5.706  0.00  0.00     0.067 A 
ATOM     10  C   UNK d   0      -3.356 -22.462  -5.168  0.00  0.00     0.062 C 
ATOM     11  N   UNK d   0      -5.448 -23.459  -4.825  0.00  0.00    -0.248 NA
ATOM     12  C   UNK d   0      -3.184 -21.979  -3.866  0.00  0.00     0.041 A 
ATOM     13  N   UNK d   0      -3.537 -22.497  -2.674  0.00  0.00    -0.355 N 
ATOM     14  C   UNK d   0      -2.597 -20.714  -3.682  0.00  0.00    -0.022 A 
ATOM     15  C   UNK d   0      -3.197 -21.590  -1.740  0.00  0.00     0.042 A 
ATOM     16  H   UNK d   0      -4.000 -23.493  -2.496  0.00  0.00     0.166 HD
ATOM     17  C   UNK d   0      -3.340 -21.625  -0.338  0.00  0.00     0.062 C 
ATOM     18  C   UNK d   0      -2.605 -20.459  -2.333  0.00  0.00    -0.013 A 
ATOM     19  C   UNK d   0      -4.422 -22.015   0.409  0.00  0.00     0.067 A 
ATOM     20  N   UNK d   0      -5.413 -22.632  -0.239  0.00  0.00    -0.248 NA
ATOM     21  C   UNK d   0      -4.816 -21.922   1.805  0.00  0.00    -0.011 A 
ATOM     22  C   UNK d   0      -6.428 -22.947   0.631  0.00  0.00     0.066 A 
ATOM     23  C   UNK d   0      -7.511 -23.628   0.095  0.00  0.00     0.062 C 
ATOM     24  C   UNK d   0      -5.993 -22.465   1.927  0.00  0.00    -0.020 A 
ATOM     25  C   UNK d   0      -7.658 -24.116  -1.213  0.00  0.00     0.041 A 
ATOM     26  N   UNK d   0      -7.321 -23.594  -2.398  0.00  0.00    -0.355 N 
ATOM     27  C   UNK d   0      -8.243 -25.388  -1.397  0.00  0.00    -0.022 A 
ATOM     28  C   UNK d   0      -7.668 -24.493  -3.333  0.00  0.00     0.042 A 
ATOM     29  H   UNK d   0      -6.866 -22.589  -2.577  0.00  0.00     0.166 HD
ATOM     30  C   UNK d   0      -7.540 -24.468  -4.731  0.00  0.00     0.062 C 
ATOM     31  C   UNK d   0      -8.253 -25.635  -2.735  0.00  0.00    -0.013 A 
ATOM     32  C   UNK d   0      -6.478 -23.993  -5.483  0.00  0.00     0.066 A 
BRANCH   8  33
ATOM     33  C   UNK d   0      -4.265 -23.143  -8.294  0.00  0.00     0.151 C 
BRANCH  33  34
ATOM     34  C   UNK d   0      -2.825 -23.441  -8.191  0.00  0.00     0.143 C 
ATOM     35  O   UNK d   0      -2.430 -24.561  -7.838  0.00  0.00    -0.650 OA
BRANCH  34  36
ATOM     36  O   UNK d   0      -1.910 -22.458  -8.489  0.00  0.00    -0.776 OA
ATOM     37  H   UNK d   0      -1.107 -22.645  -9.105  0.00  0.00     0.167 HD
ENDBRANCH  34  36
ENDBRANCH  33  34
ENDBRANCH   8  33
BRANCH  31  38
ATOM     38  C   UNK d   0      -8.773 -26.884  -3.407  0.00  0.00     0.151 C 
BRANCH  38  39
ATOM     39  C   UNK d   0     -10.110 -26.721  -3.938  0.00  0.00     0.143 C 
ATOM     40  O   UNK d   0     -11.006 -26.127  -3.312  0.00  0.00    -0.650 OA
BRANCH  39  41
ATOM     41  O   UNK d   0     -10.418 -27.243  -5.194  0.00  0.00    -0.776 OA
ATOM     42  H   UNK d   0     -11.397 -27.498  -5.360  0.00  0.00     0.167 HD
ENDBRANCH  39  41
ENDBRANCH  38  39
ENDBRANCH  31  38
BRANCH  27  43
ATOM     43  C   UNK d   0      -8.783 -26.352  -0.370  0.00  0.00     0.052 C 
BRANCH  43  44
ATOM     44  C   UNK d   0      -7.894 -26.505   0.821  0.00  0.00     0.115 C 
BRANCH  44  45
ATOM     45  C   UNK d   0      -6.619 -27.089   0.327  0.00  0.00     0.139 C 
ATOM     46  O   UNK d   0      -5.543 -26.636   0.789  0.00  0.00    -0.650 OA
BRANCH  45  47
ATOM     47  O   UNK d   0      -6.574 -28.103  -0.605  0.00  0.00    -0.776 OA
ATOM     48  H   UNK d   0      -5.921 -28.901  -0.533  0.00  0.00     0.167 HD
ENDBRANCH  45  47
ENDBRANCH  44  45
ENDBRANCH  43  44
ENDBRANCH  27  43
BRANCH  24  49
ATOM     49  C   UNK d   0      -6.751 -22.620   3.180  0.00  0.00     0.052 C 
BRANCH  49  50
ATOM     50  C   UNK d   0      -7.958 -21.718   3.178  0.00  0.00     0.115 C 
BRANCH  50  51
ATOM     51  C   UNK d   0      -7.915 -20.548   4.046  0.00  0.00     0.139 C 
ATOM     52  O   UNK d   0      -8.949 -19.947   4.421  0.00  0.00    -0.650 OA
BRANCH  51  53
ATOM     53  O   UNK d   0      -6.693 -20.063   4.484  0.00  0.00    -0.776 OA
ATOM     54  H   UNK d   0      -5.954 -20.723   4.657  0.00  0.00     0.167 HD
ENDBRANCH  51  53
ENDBRANCH  50  51
ENDBRANCH  49  50
ENDBRANCH  24  49
BRANCH  21  55
ATOM     55  C   UNK d   0      -3.974 -21.304   2.871  0.00  0.00     0.151 C 
BRANCH  55  56
ATOM     56  C   UNK d   0      -3.661 -19.896   2.580  0.00  0.00     0.143 C 
ATOM     57  O   UNK d   0      -2.498 -19.486   2.399  0.00  0.00    -0.650 OA
BRANCH  56  58
ATOM     58  O   UNK d   0      -4.724 -18.997   2.506  0.00  0.00    -0.776 OA
ATOM     59  H   UNK d   0      -5.662 -19.419   2.636  0.00  0.00     0.167 HD
ENDBRANCH  56  58
ENDBRANCH  55  56
ENDBRANCH  21  55
BRANCH  18  60
ATOM     60  C   UNK d   0      -2.075 -19.202  -1.689  0.00  0.00     0.151 C 
BRANCH  60  61
ATOM     61  C   UNK d   0      -0.650 -19.454  -1.423  0.00  0.00     0.143 C 
ATOM     62  O   UNK d   0      -0.176 -20.218  -0.582  0.00  0.00    -0.650 OA
BRANCH  61  63
ATOM     63  O   UNK d   0       0.252 -18.727  -2.236  0.00  0.00    -0.776 OA
ATOM     64  H   UNK d   0       0.907 -19.200  -2.834  0.00  0.00     0.167 HD
ENDBRANCH  61  63
ENDBRANCH  60  61
ENDBRANCH  18  60
BRANCH  14  65
ATOM     65  C   UNK d   0      -1.948 -19.782  -4.665  0.00  0.00     0.052 C 
BRANCH  65  66
ATOM     66  C   UNK d   0      -2.804 -18.616  -5.014  0.00  0.00     0.115 C 
BRANCH  66  67
ATOM     67  C   UNK d   0      -2.249 -17.525  -5.763  0.00  0.00     0.139 C 
ATOM     68  O   UNK d   0      -2.829 -17.172  -6.855  0.00  0.00    -0.650 OA
BRANCH  67  69
ATOM     69  O   UNK d   0      -1.121 -16.765  -5.456  0.00  0.00    -0.776 OA
ATOM     70  H   UNK d   0      -0.612 -17.043  -4.604  0.00  0.00     0.167 HD
ENDBRANCH  67  69
ENDBRANCH  66  67
ENDBRANCH  65  66
ENDBRANCH  14  65
ENDBRANCH   6   7
ENDBRANCH   5   6
ENDBRANCH   2   5
TORSDOF 28
ENDMDL
MODEL 13
REMARK VINA RESULT:      -8.2     32.781     35.691
REMARK  28 active torsions:
REMARK  status: ('A' for Active; 'I' for Inactive)
REMARK    1  A    between atoms: C_2  and  O_3 
REMARK    2  A    between atoms: C_2  and  C_4 
REMARK    3  A    between atoms: C_4  and  C_5 
REMARK    4  A    between atoms: C_5  and  C_6 
REMARK    5  A    between atoms: C_7  and  C_8 
REMARK    6  A    between atoms: C_8  and  C_9 
REMARK    7  A    between atoms: C_9  and  O_11 
REMARK    8  A    between atoms: C_28  and  C_29 
REMARK    9  A    between atoms: C_29  and  C_30 
REMARK   10  A    between atoms: C_30  and  O_32 
REMARK   11  A    between atoms: C_33  and  C_34 
REMARK   12  A    between atoms: C_34  and  C_35 
REMARK   13  A    between atoms: C_35  and  C_36 
REMARK   14  A    between atoms: C_36  and  O_38 
REMARK   15  A    between atoms: C_39  and  C_40 
REMARK   16  A    between atoms: C_40  and  C_41 
REMARK   17  A    between atoms: C_41  and  C_42 
REMARK   18  A    between atoms: C_42  and  O_44 
REMARK   19  A    between atoms: C_45  and  C_46 
REMARK   20  A    between atoms: C_46  and  C_47 
REMARK   21  A    between atoms: C_47  and  O_49 
REMARK   22  A    between atoms: C_50  and  C_51 
REMARK   23  A    between atoms: C_51  and  C_52 
REMARK   24  A    between atoms: C_52  and  O_54 
REMARK   25  A    between atoms: C_55  and  C_56 
REMARK   26  A    between atoms: C_56  and  C_57 
REMARK   27  A    between atoms: C_57  and  C_58 
REMARK   28  A    between atoms: C_58  and  O_60 
ROOT
ATOM      1  O   UNK d   0      -5.391 -28.756  -0.892  0.00  0.00    -0.650 OA
ATOM      2  C   UNK d   0      -5.489 -28.030   0.122  0.00  0.00     0.139 C 
ENDROOT
BRANCH   2   3
ATOM      3  O   UNK d   0      -4.645 -28.241   1.185  0.00  0.00    -0.776 OA
ATOM      4  H   UNK d   0      -4.960 -28.096   2.147  0.00  0.00     0.167 HD
ENDBRANCH   2   3
BRANCH   2   5
ATOM      5  C   UNK d   0      -6.513 -26.949   0.172  0.00  0.00     0.115 C 
BRANCH   5   6
ATOM      6  C   UNK d   0      -6.250 -26.040   1.342  0.00  0.00     0.052 C 
BRANCH   6   7
ATOM      7  C   UNK d   0      -7.318 -24.986   1.511  0.00  0.00    -0.020 A 
ATOM      8  C   UNK d   0      -8.610 -25.128   1.364  0.00  0.00    -0.011 A 
ATOM      9  C   UNK d   0      -9.231 -23.839   1.620  0.00  0.00     0.067 A 
ATOM     10  C   UNK d   0     -10.541 -23.335   1.649  0.00  0.00     0.062 C 
ATOM     11  N   UNK d   0      -8.242 -22.968   1.910  0.00  0.00    -0.248 NA
ATOM     12  C   UNK d   0     -10.968 -22.118   2.193  0.00  0.00     0.041 A 
ATOM     13  N   UNK d   0     -10.434 -20.884   2.132  0.00  0.00    -0.355 N 
ATOM     14  C   UNK d   0     -12.118 -22.102   3.003  0.00  0.00    -0.022 A 
ATOM     15  C   UNK d   0     -11.211 -20.086   2.888  0.00  0.00     0.042 A 
ATOM     16  H   UNK d   0      -9.537 -20.578   1.549  0.00  0.00     0.166 HD
ATOM     17  C   UNK d   0     -11.108 -18.708   3.167  0.00  0.00     0.062 C 
ATOM     18  C   UNK d   0     -12.277 -20.814   3.452  0.00  0.00    -0.013 A 
ATOM     19  C   UNK d   0      -9.997 -17.978   3.505  0.00  0.00     0.067 A 
ATOM     20  N   UNK d   0      -8.813 -18.580   3.370  0.00  0.00    -0.248 NA
ATOM     21  C   UNK d   0      -9.742 -16.642   4.018  0.00  0.00    -0.011 A 
ATOM     22  C   UNK d   0      -7.802 -17.736   3.758  0.00  0.00     0.066 A 
ATOM     23  C   UNK d   0      -6.509 -18.223   3.632  0.00  0.00     0.062 C 
ATOM     24  C   UNK d   0      -8.455 -16.508   4.168  0.00  0.00    -0.020 A 
ATOM     25  C   UNK d   0      -6.100 -19.443   3.071  0.00  0.00     0.041 A 
ATOM     26  N   UNK d   0      -6.623 -20.673   3.145  0.00  0.00    -0.355 N 
ATOM     27  C   UNK d   0      -4.949 -19.458   2.254  0.00  0.00    -0.022 A 
ATOM     28  C   UNK d   0      -5.845 -21.472   2.398  0.00  0.00     0.042 A 
ATOM     29  H   UNK d   0      -7.518 -20.980   3.739  0.00  0.00     0.166 HD
ATOM     30  C   UNK d   0      -5.930 -22.845   2.119  0.00  0.00     0.062 C 
ATOM     31  C   UNK d   0      -4.780 -20.738   1.824  0.00  0.00    -0.013 A 
ATOM     32  C   UNK d   0      -7.066 -23.596   1.862  0.00  0.00     0.066 A 
BRANCH   8  33
ATOM     33  C   UNK d   0      -9.329 -26.363   0.999  0.00  0.00     0.151 C 
BRANCH  33  34
ATOM     34  C   UNK d   0      -9.910 -26.306  -0.355  0.00  0.00     0.143 C 
ATOM     35  O   UNK d   0     -11.004 -25.758  -0.555  0.00  0.00    -0.650 OA
BRANCH  34  36
ATOM     36  O   UNK d   0      -9.228 -26.870  -1.407  0.00  0.00    -0.776 OA
ATOM     37  H   UNK d   0      -9.551 -27.742  -1.848  0.00  0.00     0.167 HD
ENDBRANCH  34  36
ENDBRANCH  33  34
ENDBRANCH   8  33
BRANCH  31  38
ATOM     38  C   UNK d   0      -3.683 -21.233   0.911  0.00  0.00     0.151 C 
BRANCH  38  39
ATOM     39  C   UNK d   0      -2.555 -21.781   1.634  0.00  0.00     0.143 C 
ATOM     40  O   UNK d   0      -2.380 -23.005   1.767  0.00  0.00    -0.650 OA
BRANCH  39  41
ATOM     41  O   UNK d   0      -1.623 -20.917   2.209  0.00  0.00    -0.776 OA
ATOM     42  H   UNK d   0      -0.993 -21.318   2.911  0.00  0.00     0.167 HD
ENDBRANCH  39  41
ENDBRANCH  38  39
ENDBRANCH  31  38
BRANCH  27  43
ATOM     43  C   UNK d   0      -4.025 -18.326   1.880  0.00  0.00     0.052 C 
BRANCH  43  44
ATOM     44  C   UNK d   0      -4.192 -17.869   0.467  0.00  0.00     0.115 C 
BRANCH  44  45
ATOM     45  C   UNK d   0      -5.360 -16.950   0.454  0.00  0.00     0.139 C 
ATOM     46  O   UNK d   0      -5.343 -15.961   1.228  0.00  0.00    -0.650 OA
BRANCH  45  47
ATOM     47  O   UNK d   0      -6.448 -17.135  -0.370  0.00  0.00    -0.776 OA
ATOM     48  H   UNK d   0      -7.202 -16.437  -0.468  0.00  0.00     0.167 HD
ENDBRANCH  45  47
ENDBRANCH  44  45
ENDBRANCH  43  44
ENDBRANCH  27  43
BRANCH  24  49
ATOM     49  C   UNK d   0      -7.756 -15.296   4.628  0.00  0.00     0.052 C 
BRANCH  49  50
ATOM     50  C   UNK d   0      -7.255 -15.483   6.037  0.00  0.00     0.115 C 
BRANCH  50  51
ATOM     51  C   UNK d   0      -8.257 -15.638   7.084  0.00  0.00     0.139 C 
ATOM     52  O   UNK d   0      -8.391 -16.698   7.740  0.00  0.00    -0.650 OA
BRANCH  51  53
ATOM     53  O   UNK d   0      -9.108 -14.585   7.380  0.00  0.00    -0.776 OA
ATOM     54  H   UNK d   0      -9.913 -14.445   6.795  0.00  0.00     0.167 HD
ENDBRANCH  51  53
ENDBRANCH  50  51
ENDBRANCH  49  50
ENDBRANCH  24  49
BRANCH  21  55
ATOM     55  C   UNK d   0     -10.809 -15.638   4.300  0.00  0.00     0.151 C 
BRANCH  55  56
ATOM     56  C   UNK d   0     -11.671 -16.049   5.419  0.00  0.00     0.143 C 
ATOM     57  O   UNK d   0     -12.883 -15.762   5.478  0.00  0.00    -0.650 OA
BRANCH  56  58
ATOM     58  O   UNK d   0     -11.091 -16.791   6.447  0.00  0.00    -0.776 OA
ATOM     59  H   UNK d   0     -11.540 -17.707   6.630  0.00  0.00     0.167 HD
ENDBRANCH  56  58
ENDBRANCH  55  56
ENDBRANCH  21  55
BRANCH  18  60
ATOM     60  C   UNK d   0     -13.385 -20.346   4.361  0.00  0.00     0.151 C 
BRANCH  60  61
ATOM     61  C   UNK d   0     -14.141 -19.344   3.595  0.00  0.00     0.143 C 
ATOM     62  O   UNK d   0     -14.449 -18.209   3.958  0.00  0.00    -0.650 OA
BRANCH  61  63
ATOM     63  O   UNK d   0     -14.546 -19.755   2.302  0.00  0.00    -0.776 OA
ATOM     64  H   UNK d   0     -13.901 -19.755   1.532  0.00  0.00     0.167 HD
ENDBRANCH  61  63
ENDBRANCH  60  61
ENDBRANCH  18  60
BRANCH  14  65
ATOM     65  C   UNK d   0     -13.122 -23.178   3.303  0.00  0.00     0.052 C 
BRANCH  65  66
ATOM     66  C   UNK d   0     -14.323 -23.112   2.428  0.00  0.00     0.115 C 
BRANCH  66  67
ATOM     67  C   UNK d   0     -14.163 -22.954   1.010  0.00  0.00     0.139 C 
ATOM     68  O   UNK d   0     -13.760 -23.963   0.321  0.00  0.00    -0.650 OA
BRANCH  67  69
ATOM     69  O   UNK d   0     -14.393 -21.809   0.247  0.00  0.00    -0.776 OA
ATOM     70  H   UNK d   0     -14.711 -21.971  -0.719  0.00  0.00     0.167 HD
ENDBRANCH  67  69
ENDBRANCH  66  67
ENDBRANCH  65  66
ENDBRANCH  14  65
ENDBRANCH   6   7
ENDBRANCH   5   6
ENDBRANCH   2   5
TORSDOF 28
ENDMDL
MODEL 14
REMARK VINA RESULT:      -8.1     30.782     35.000
REMARK  28 active torsions:
REMARK  status: ('A' for Active; 'I' for Inactive)
REMARK    1  A    between atoms: C_2  and  O_3 
REMARK    2  A    between atoms: C_2  and  C_4 
REMARK    3  A    between atoms: C_4  and  C_5 
REMARK    4  A    between atoms: C_5  and  C_6 
REMARK    5  A    between atoms: C_7  and  C_8 
REMARK    6  A    between atoms: C_8  and  C_9 
REMARK    7  A    between atoms: C_9  and  O_11 
REMARK    8  A    between atoms: C_28  and  C_29 
REMARK    9  A    between atoms: C_29  and  C_30 
REMARK   10  A    between atoms: C_30  and  O_32 
REMARK   11  A    between atoms: C_33  and  C_34 
REMARK   12  A    between atoms: C_34  and  C_35 
REMARK   13  A    between atoms: C_35  and  C_36 
REMARK   14  A    between atoms: C_36  and  O_38 
REMARK   15  A    between atoms: C_39  and  C_40 
REMARK   16  A    between atoms: C_40  and  C_41 
REMARK   17  A    between atoms: C_41  and  C_42 
REMARK   18  A    between atoms: C_42  and  O_44 
REMARK   19  A    between atoms: C_45  and  C_46 
REMARK   20  A    between atoms: C_46  and  C_47 
REMARK   21  A    between atoms: C_47  and  O_49 
REMARK   22  A    between atoms: C_50  and  C_51 
REMARK   23  A    between atoms: C_51  and  C_52 
REMARK   24  A    between atoms: C_52  and  O_54 
REMARK   25  A    between atoms: C_55  and  C_56 
REMARK   26  A    between atoms: C_56  and  C_57 
REMARK   27  A    between atoms: C_57  and  C_58 
REMARK   28  A    between atoms: C_58  and  O_60 
ROOT
ATOM      1  O   UNK d   0      -4.524 -22.247   2.185  0.00  0.00    -0.650 OA
ATOM      2  C   UNK d   0      -4.375 -23.427   1.797  0.00  0.00     0.139 C 
ENDROOT
BRANCH   2   3
ATOM      3  O   UNK d   0      -3.229 -24.107   2.132  0.00  0.00    -0.776 OA
ATOM      4  H   UNK d   0      -3.266 -24.956   2.700  0.00  0.00     0.167 HD
ENDBRANCH   2   3
BRANCH   2   5
ATOM      5  C   UNK d   0      -5.433 -24.085   0.978  0.00  0.00     0.115 C 
BRANCH   5   6
ATOM      6  C   UNK d   0      -6.539 -24.585   1.867  0.00  0.00     0.052 C 
BRANCH   6   7
ATOM      7  C   UNK d   0      -7.858 -23.904   1.591  0.00  0.00    -0.020 A 
ATOM      8  C   UNK d   0      -8.732 -24.201   0.663  0.00  0.00    -0.011 A 
ATOM      9  C   UNK d   0      -9.839 -23.267   0.779  0.00  0.00     0.067 A 
ATOM     10  C   UNK d   0     -11.063 -23.062   0.123  0.00  0.00     0.062 C 
ATOM     11  N   UNK d   0      -9.554 -22.432   1.800  0.00  0.00    -0.248 NA
ATOM     12  C   UNK d   0     -12.136 -22.277   0.559  0.00  0.00     0.041 A 
ATOM     13  N   UNK d   0     -12.168 -21.053   1.120  0.00  0.00    -0.355 N 
ATOM     14  C   UNK d   0     -13.439 -22.802   0.483  0.00  0.00    -0.022 A 
ATOM     15  C   UNK d   0     -13.457 -20.791   1.409  0.00  0.00     0.042 A 
ATOM     16  H   UNK d   0     -11.300 -20.379   1.291  0.00  0.00     0.166 HD
ATOM     17  C   UNK d   0     -14.048 -19.658   2.002  0.00  0.00     0.062 C 
ATOM     18  C   UNK d   0     -14.284 -21.865   1.024  0.00  0.00    -0.013 A 
ATOM     19  C   UNK d   0     -13.639 -18.946   3.100  0.00  0.00     0.067 A 
ATOM     20  N   UNK d   0     -12.421 -19.217   3.576  0.00  0.00    -0.248 NA
ATOM     21  C   UNK d   0     -14.213 -17.919   3.953  0.00  0.00    -0.011 A 
ATOM     22  C   UNK d   0     -12.157 -18.442   4.679  0.00  0.00     0.066 A 
ATOM     23  C   UNK d   0     -10.904 -18.595   5.255  0.00  0.00     0.062 C 
ATOM     24  C   UNK d   0     -13.343 -17.631   4.878  0.00  0.00    -0.020 A 
ATOM     25  C   UNK d   0      -9.836 -19.379   4.794  0.00  0.00     0.041 A 
ATOM     26  N   UNK d   0      -9.802 -20.602   4.250  0.00  0.00    -0.355 N 
ATOM     27  C   UNK d   0      -8.529 -18.850   4.867  0.00  0.00    -0.022 A 
ATOM     28  C   UNK d   0      -8.517 -20.868   3.969  0.00  0.00     0.042 A 
ATOM     29  H   UNK d   0     -10.675 -21.282   4.089  0.00  0.00     0.166 HD
ATOM     30  C   UNK d   0      -7.914 -21.995   3.388  0.00  0.00     0.062 C 
ATOM     31  C   UNK d   0      -7.688 -19.785   4.346  0.00  0.00    -0.013 A 
ATOM     32  C   UNK d   0      -8.376 -22.763   2.331  0.00  0.00     0.066 A 
BRANCH   8  33
ATOM     33  C   UNK d   0      -8.629 -25.282  -0.335  0.00  0.00     0.151 C 
BRANCH  33  34
ATOM     34  C   UNK d   0      -9.523 -26.416  -0.042  0.00  0.00     0.143 C 
ATOM     35  O   UNK d   0     -10.186 -26.953  -0.941  0.00  0.00    -0.650 OA
BRANCH  34  36
ATOM     36  O   UNK d   0      -9.622 -26.882   1.249  0.00  0.00    -0.776 OA
ATOM     37  H   UNK d   0      -8.805 -26.903   1.874  0.00  0.00     0.167 HD
ENDBRANCH  34  36
ENDBRANCH  33  34
ENDBRANCH   8  33
BRANCH  31  38
ATOM     38  C   UNK d   0      -6.190 -19.655   4.202  0.00  0.00     0.151 C 
BRANCH  38  39
ATOM     39  C   UNK d   0      -5.800 -18.975   2.985  0.00  0.00     0.143 C 
ATOM     40  O   UNK d   0      -5.430 -17.788   2.976  0.00  0.00    -0.650 OA
BRANCH  39  41
ATOM     41  O   UNK d   0      -5.834 -19.664   1.773  0.00  0.00    -0.776 OA
ATOM     42  H   UNK d   0      -6.157 -20.636   1.803  0.00  0.00     0.167 HD
ENDBRANCH  39  41
ENDBRANCH  38  39
ENDBRANCH  31  38
BRANCH  27  43
ATOM     43  C   UNK d   0      -8.063 -17.519   5.403  0.00  0.00     0.052 C 
BRANCH  43  44
ATOM     44  C   UNK d   0      -8.156 -16.414   4.402  0.00  0.00     0.115 C 
BRANCH  44  45
ATOM     45  C   UNK d   0      -7.903 -15.150   5.142  0.00  0.00     0.139 C 
ATOM     46  O   UNK d   0      -8.797 -14.268   5.130  0.00  0.00    -0.650 OA
BRANCH  45  47
ATOM     47  O   UNK d   0      -6.737 -14.912   5.838  0.00  0.00    -0.776 OA
ATOM     48  H   UNK d   0      -5.974 -14.323   5.468  0.00  0.00     0.167 HD
ENDBRANCH  45  47
ENDBRANCH  44  45
ENDBRANCH  43  44
ENDBRANCH  27  43
BRANCH  24  49
ATOM     49  C   UNK d   0     -13.499 -16.614   5.931  0.00  0.00     0.052 C 
BRANCH  49  50
ATOM     50  C   UNK d   0     -14.138 -17.220   7.155  0.00  0.00     0.115 C 
BRANCH  50  51
ATOM     51  C   UNK d   0     -13.257 -17.572   8.260  0.00  0.00     0.139 C 
ATOM     52  O   UNK d   0     -12.051 -17.233   8.297  0.00  0.00    -0.650 OA
BRANCH  51  53
ATOM     53  O   UNK d   0     -13.752 -18.312   9.323  0.00  0.00    -0.776 OA
ATOM     54  H   UNK d   0     -13.683 -17.922  10.247  0.00  0.00     0.167 HD
ENDBRANCH  51  53
ENDBRANCH  50  51
ENDBRANCH  49  50
ENDBRANCH  24  49
BRANCH  21  55
ATOM     55  C   UNK d   0     -15.570 -17.329   3.753  0.00  0.00     0.151 C 
BRANCH  55  56
ATOM     56  C   UNK d   0     -16.639 -18.252   4.165  0.00  0.00     0.143 C 
ATOM     57  O   UNK d   0     -16.993 -18.387   5.352  0.00  0.00    -0.650 OA
BRANCH  56  58
ATOM     58  O   UNK d   0     -17.270 -18.999   3.172  0.00  0.00    -0.776 OA
ATOM     59  H   UNK d   0     -17.458 -19.987   3.422  0.00  0.00     0.167 HD
ENDBRANCH  56  58
ENDBRANCH  55  56
ENDBRANCH  21  55
BRANCH  18  60
ATOM     60  C   UNK d   0     -15.779 -22.020   1.153  0.00  0.00     0.151 C 
BRANCH  60  61
ATOM     61  C   UNK d   0     -16.367 -21.068   0.199  0.00  0.00     0.143 C 
ATOM     62  O   UNK d   0     -15.993 -20.844  -0.953  0.00  0.00    -0.650 OA
BRANCH  61  63
ATOM     63  O   UNK d   0     -17.483 -20.343   0.682  0.00  0.00    -0.776 OA
ATOM     64  H   UNK d   0     -18.079 -20.724   1.396  0.00  0.00     0.167 HD
ENDBRANCH  61  63
ENDBRANCH  60  61
ENDBRANCH  18  60
BRANCH  14  65
ATOM     65  C   UNK d   0     -13.952 -24.066  -0.146  0.00  0.00     0.052 C 
BRANCH  65  66
ATOM     66  C   UNK d   0     -14.494 -23.856  -1.516  0.00  0.00     0.115 C 
BRANCH  66  67
ATOM     67  C   UNK d   0     -13.592 -23.661  -2.616  0.00  0.00     0.139 C 
ATOM     68  O   UNK d   0     -13.466 -24.604  -3.481  0.00  0.00    -0.650 OA
BRANCH  67  69
ATOM     69  O   UNK d   0     -12.802 -22.544  -2.884  0.00  0.00    -0.776 OA
ATOM     70  H   UNK d   0     -12.386 -22.505  -3.826  0.00  0.00     0.167 HD
ENDBRANCH  67  69
ENDBRANCH  66  67
ENDBRANCH  65  66
ENDBRANCH  14  65
ENDBRANCH   6   7
ENDBRANCH   5   6
ENDBRANCH   2   5
TORSDOF 28
ENDMDL
MODEL 15
REMARK VINA RESULT:      -8.1     30.241     34.081
REMARK  28 active torsions:
REMARK  status: ('A' for Active; 'I' for Inactive)
REMARK    1  A    between atoms: C_2  and  O_3 
REMARK    2  A    between atoms: C_2  and  C_4 
REMARK    3  A    between atoms: C_4  and  C_5 
REMARK    4  A    between atoms: C_5  and  C_6 
REMARK    5  A    between atoms: C_7  and  C_8 
REMARK    6  A    between atoms: C_8  and  C_9 
REMARK    7  A    between atoms: C_9  and  O_11 
REMARK    8  A    between atoms: C_28  and  C_29 
REMARK    9  A    between atoms: C_29  and  C_30 
REMARK   10  A    between atoms: C_30  and  O_32 
REMARK   11  A    between atoms: C_33  and  C_34 
REMARK   12  A    between atoms: C_34  and  C_35 
REMARK   13  A    between atoms: C_35  and  C_36 
REMARK   14  A    between atoms: C_36  and  O_38 
REMARK   15  A    between atoms: C_39  and  C_40 
REMARK   16  A    between atoms: C_40  and  C_41 
REMARK   17  A    between atoms: C_41  and  C_42 
REMARK   18  A    between atoms: C_42  and  O_44 
REMARK   19  A    between atoms: C_45  and  C_46 
REMARK   20  A    between atoms: C_46  and  C_47 
REMARK   21  A    between atoms: C_47  and  O_49 
REMARK   22  A    between atoms: C_50  and  C_51 
REMARK   23  A    between atoms: C_51  and  C_52 
REMARK   24  A    between atoms: C_52  and  O_54 
REMARK   25  A    between atoms: C_55  and  C_56 
REMARK   26  A    between atoms: C_56  and  C_57 
REMARK   27  A    between atoms: C_57  and  C_58 
REMARK   28  A    between atoms: C_58  and  O_60 
ROOT
ATOM      1  O   UNK d   0       1.877 -17.870  -1.642  0.00  0.00    -0.650 OA
ATOM      2  C   UNK d   0       1.692 -18.989  -1.114  0.00  0.00     0.139 C 
ENDROOT
BRANCH   2   3
ATOM      3  O   UNK d   0       2.514 -19.396  -0.091  0.00  0.00    -0.776 OA
ATOM      4  H   UNK d   0       3.455 -19.012   0.013  0.00  0.00     0.167 HD
ENDBRANCH   2   3
BRANCH   2   5
ATOM      5  C   UNK d   0       0.589 -19.870  -1.594  0.00  0.00     0.115 C 
BRANCH   5   6
ATOM      6  C   UNK d   0      -0.730 -19.153  -1.486  0.00  0.00     0.052 C 
BRANCH   6   7
ATOM      7  C   UNK d   0      -1.832 -19.845  -2.252  0.00  0.00    -0.020 A 
ATOM      8  C   UNK d   0      -2.041 -19.823  -3.544  0.00  0.00    -0.011 A 
ATOM      9  C   UNK d   0      -3.221 -20.627  -3.817  0.00  0.00     0.067 A 
ATOM     10  C   UNK d   0      -3.941 -21.013  -4.958  0.00  0.00     0.062 C 
ATOM     11  N   UNK d   0      -3.669 -21.095  -2.633  0.00  0.00    -0.248 NA
ATOM     12  C   UNK d   0      -4.900 -22.028  -5.051  0.00  0.00     0.041 A 
ATOM     13  N   UNK d   0      -5.911 -22.371  -4.230  0.00  0.00    -0.355 N 
ATOM     14  C   UNK d   0      -4.839 -22.925  -6.133  0.00  0.00    -0.022 A 
ATOM     15  C   UNK d   0      -6.487 -23.467  -4.759  0.00  0.00     0.042 A 
ATOM     16  H   UNK d   0      -6.223 -21.837  -3.305  0.00  0.00     0.166 HD
ATOM     17  C   UNK d   0      -7.581 -24.231  -4.307  0.00  0.00     0.062 C 
ATOM     18  C   UNK d   0      -5.842 -23.844  -5.952  0.00  0.00    -0.013 A 
ATOM     19  C   UNK d   0      -7.859 -24.675  -3.039  0.00  0.00     0.067 A 
ATOM     20  N   UNK d   0      -7.122 -24.170  -2.047  0.00  0.00    -0.248 NA
ATOM     21  C   UNK d   0      -8.790 -25.618  -2.443  0.00  0.00    -0.011 A 
ATOM     22  C   UNK d   0      -7.502 -24.715  -0.845  0.00  0.00     0.066 A 
ATOM     23  C   UNK d   0      -6.840 -24.249   0.281  0.00  0.00     0.062 C 
ATOM     24  C   UNK d   0      -8.573 -25.640  -1.160  0.00  0.00    -0.020 A 
ATOM     25  C   UNK d   0      -5.888 -23.220   0.355  0.00  0.00     0.041 A 
ATOM     26  N   UNK d   0      -4.875 -22.888  -0.454  0.00  0.00    -0.355 N 
ATOM     27  C   UNK d   0      -5.953 -22.317   1.439  0.00  0.00    -0.022 A 
ATOM     28  C   UNK d   0      -4.293 -21.800   0.076  0.00  0.00     0.042 A 
ATOM     29  H   UNK d   0      -4.556 -23.431  -1.377  0.00  0.00     0.166 HD
ATOM     30  C   UNK d   0      -3.199 -21.035  -0.357  0.00  0.00     0.062 C 
ATOM     31  C   UNK d   0      -4.948 -21.416   1.270  0.00  0.00    -0.013 A 
ATOM     32  C   UNK d   0      -2.876 -20.661  -1.652  0.00  0.00     0.066 A 
BRANCH   8  33
ATOM     33  C   UNK d   0      -1.241 -19.113  -4.558  0.00  0.00     0.151 C 
BRANCH  33  34
ATOM     34  C   UNK d   0      -1.779 -17.778  -4.878  0.00  0.00     0.143 C 
ATOM     35  O   UNK d   0      -2.993 -17.544  -4.793  0.00  0.00    -0.650 OA
BRANCH  34  36
ATOM     36  O   UNK d   0      -0.919 -16.781  -5.276  0.00  0.00    -0.776 OA
ATOM     37  H   UNK d   0       0.074 -16.791  -5.003  0.00  0.00     0.167 HD
ENDBRANCH  34  36
ENDBRANCH  33  34
ENDBRANCH   8  33
BRANCH  31  38
ATOM     38  C   UNK d   0      -4.634 -20.250   2.178  0.00  0.00     0.151 C 
BRANCH  38  39
ATOM     39  C   UNK d   0      -5.452 -19.088   1.903  0.00  0.00     0.143 C 
ATOM     40  O   UNK d   0      -5.420 -18.495   0.810  0.00  0.00    -0.650 OA
BRANCH  39  41
ATOM     41  O   UNK d   0      -6.311 -18.604   2.890  0.00  0.00    -0.776 OA
ATOM     42  H   UNK d   0      -5.875 -18.144   3.696  0.00  0.00     0.167 HD
ENDBRANCH  39  41
ENDBRANCH  38  39
ENDBRANCH  31  38
BRANCH  27  43
ATOM     43  C   UNK d   0      -6.913 -22.285   2.602  0.00  0.00     0.052 C 
BRANCH  43  44
ATOM     44  C   UNK d   0      -8.150 -21.494   2.325  0.00  0.00     0.115 C 
BRANCH  44  45
ATOM     45  C   UNK d   0      -8.788 -21.229   3.641  0.00  0.00     0.139 C 
ATOM     46  O   UNK d   0      -9.655 -22.038   4.053  0.00  0.00    -0.650 OA
BRANCH  45  47
ATOM     47  O   UNK d   0      -8.463 -20.141   4.423  0.00  0.00    -0.776 OA
ATOM     48  H   UNK d   0      -7.578 -19.618   4.315  0.00  0.00     0.167 HD
ENDBRANCH  45  47
ENDBRANCH  44  45
ENDBRANCH  43  44
ENDBRANCH  27  43
BRANCH  24  49
ATOM     49  C   UNK d   0      -9.319 -26.432  -0.166  0.00  0.00     0.052 C 
BRANCH  49  50
ATOM     50  C   UNK d   0     -10.616 -25.747   0.183  0.00  0.00     0.115 C 
BRANCH  50  51
ATOM     51  C   UNK d   0     -10.526 -24.434   0.809  0.00  0.00     0.139 C 
ATOM     52  O   UNK d   0     -10.838 -23.377   0.211  0.00  0.00    -0.650 OA
BRANCH  51  53
ATOM     53  O   UNK d   0     -10.079 -24.327   2.117  0.00  0.00    -0.776 OA
ATOM     54  H   UNK d   0     -10.454 -23.590   2.688  0.00  0.00     0.167 HD
ENDBRANCH  51  53
ENDBRANCH  50  51
ENDBRANCH  49  50
ENDBRANCH  24  49
BRANCH  21  55
ATOM     55  C   UNK d   0      -9.802 -26.395  -3.218  0.00  0.00     0.151 C 
BRANCH  55  56
ATOM     56  C   UNK d   0     -10.815 -25.523  -3.832  0.00  0.00     0.143 C 
ATOM     57  O   UNK d   0     -11.700 -24.947  -3.171  0.00  0.00    -0.650 OA
BRANCH  56  58
ATOM     58  O   UNK d   0     -10.766 -25.346  -5.214  0.00  0.00    -0.776 OA
ATOM     59  H   UNK d   0     -10.095 -25.960  -5.709  0.00  0.00     0.167 HD
ENDBRANCH  56  58
ENDBRANCH  55  56
ENDBRANCH  21  55
BRANCH  18  60
ATOM     60  C   UNK d   0      -6.135 -24.998  -6.879  0.00  0.00     0.151 C 
BRANCH  60  61
ATOM     61  C   UNK d   0      -7.184 -24.524  -7.795  0.00  0.00     0.143 C 
ATOM     62  O   UNK d   0      -7.038 -23.801  -8.780  0.00  0.00    -0.650 OA
BRANCH  61  63
ATOM     63  O   UNK d   0      -8.494 -24.963  -7.487  0.00  0.00    -0.776 OA
ATOM     64  H   UNK d   0      -9.179 -24.330  -7.114  0.00  0.00     0.167 HD
ENDBRANCH  61  63
ENDBRANCH  60  61
ENDBRANCH  18  60
BRANCH  14  65
ATOM     65  C   UNK d   0      -3.976 -22.920  -7.363  0.00  0.00     0.052 C 
BRANCH  65  66
ATOM     66  C   UNK d   0      -2.758 -23.763  -7.222  0.00  0.00     0.115 C 
BRANCH  66  67
ATOM     67  C   UNK d   0      -1.799 -23.811  -8.289  0.00  0.00     0.139 C 
ATOM     68  O   UNK d   0      -1.779 -22.848  -9.141  0.00  0.00    -0.650 OA
BRANCH  67  69
ATOM     69  O   UNK d   0      -0.849 -24.801  -8.538  0.00  0.00    -0.776 OA
ATOM     70  H   UNK d   0       0.026 -24.482  -8.980  0.00  0.00     0.167 HD
ENDBRANCH  67  69
ENDBRANCH  66  67
ENDBRANCH  65  66
ENDBRANCH  14  65
ENDBRANCH   6   7
ENDBRANCH   5   6
ENDBRANCH   2   5
TORSDOF 28
ENDMDL
MODEL 16
REMARK VINA RESULT:      -8.1     30.326     34.046
REMARK  28 active torsions:
REMARK  status: ('A' for Active; 'I' for Inactive)
REMARK    1  A    between atoms: C_2  and  O_3 
REMARK    2  A    between atoms: C_2  and  C_4 
REMARK    3  A    between atoms: C_4  and  C_5 
REMARK    4  A    between atoms: C_5  and  C_6 
REMARK    5  A    between atoms: C_7  and  C_8 
REMARK    6  A    between atoms: C_8  and  C_9 
REMARK    7  A    between atoms: C_9  and  O_11 
REMARK    8  A    between atoms: C_28  and  C_29 
REMARK    9  A    between atoms: C_29  and  C_30 
REMARK   10  A    between atoms: C_30  and  O_32 
REMARK   11  A    between atoms: C_33  and  C_34 
REMARK   12  A    between atoms: C_34  and  C_35 
REMARK   13  A    between atoms: C_35  and  C_36 
REMARK   14  A    between atoms: C_36  and  O_38 
REMARK   15  A    between atoms: C_39  and  C_40 
REMARK   16  A    between atoms: C_40  and  C_41 
REMARK   17  A    between atoms: C_41  and  C_42 
REMARK   18  A    between atoms: C_42  and  O_44 
REMARK   19  A    between atoms: C_45  and  C_46 
REMARK   20  A    between atoms: C_46  and  C_47 
REMARK   21  A    between atoms: C_47  and  O_49 
REMARK   22  A    between atoms: C_50  and  C_51 
REMARK   23  A    between atoms: C_51  and  C_52 
REMARK   24  A    between atoms: C_52  and  O_54 
REMARK   25  A    between atoms: C_55  and  C_56 
REMARK   26  A    between atoms: C_56  and  C_57 
REMARK   27  A    between atoms: C_57  and  C_58 
REMARK   28  A    between atoms: C_58  and  O_60 
ROOT
ATOM      1  O   UNK d   0       0.238 -18.001  -6.244  0.00  0.00    -0.650 OA
ATOM      2  C   UNK d   0       0.031 -17.676  -5.054  0.00  0.00     0.139 C 
ENDROOT
BRANCH   2   3
ATOM      3  O   UNK d   0       0.331 -16.399  -4.643  0.00  0.00    -0.776 OA
ATOM      4  H   UNK d   0       0.204 -15.601  -5.268  0.00  0.00     0.167 HD
ENDBRANCH   2   3
BRANCH   2   5
ATOM      5  C   UNK d   0      -0.532 -18.667  -4.094  0.00  0.00     0.115 C 
BRANCH   5   6
ATOM      6  C   UNK d   0      -2.026 -18.511  -4.007  0.00  0.00     0.052 C 
BRANCH   6   7
ATOM      7  C   UNK d   0      -2.655 -19.471  -3.025  0.00  0.00    -0.020 A 
ATOM      8  C   UNK d   0      -2.446 -19.544  -1.735  0.00  0.00    -0.011 A 
ATOM      9  C   UNK d   0      -3.265 -20.626  -1.213  0.00  0.00     0.067 A 
ATOM     10  C   UNK d   0      -3.511 -21.190   0.048  0.00  0.00     0.062 C 
ATOM     11  N   UNK d   0      -3.935 -21.160  -2.255  0.00  0.00    -0.248 NA
ATOM     12  C   UNK d   0      -4.553 -22.055   0.400  0.00  0.00     0.041 A 
ATOM     13  N   UNK d   0      -5.077 -23.118  -0.240  0.00  0.00    -0.355 N 
ATOM     14  C   UNK d   0      -5.267 -21.813   1.588  0.00  0.00    -0.022 A 
ATOM     15  C   UNK d   0      -6.110 -23.552   0.507  0.00  0.00     0.042 A 
ATOM     16  H   UNK d   0      -4.711 -23.565  -1.190  0.00  0.00     0.166 HD
ATOM     17  C   UNK d   0      -6.997 -24.628   0.303  0.00  0.00     0.062 C 
ATOM     18  C   UNK d   0      -6.260 -22.758   1.661  0.00  0.00    -0.013 A 
ATOM     19  C   UNK d   0      -7.646 -25.004  -0.846  0.00  0.00     0.067 A 
ATOM     20  N   UNK d   0      -7.258 -24.415  -1.980  0.00  0.00    -0.248 NA
ATOM     21  C   UNK d   0      -8.722 -25.920  -1.185  0.00  0.00    -0.011 A 
ATOM     22  C   UNK d   0      -8.003 -24.879  -3.036  0.00  0.00     0.066 A 
ATOM     23  C   UNK d   0      -7.679 -24.376  -4.287  0.00  0.00     0.062 C 
ATOM     24  C   UNK d   0      -8.929 -25.839  -2.468  0.00  0.00    -0.020 A 
ATOM     25  C   UNK d   0      -6.620 -23.517  -4.621  0.00  0.00     0.041 A 
ATOM     26  N   UNK d   0      -6.109 -22.452  -3.993  0.00  0.00    -0.355 N 
ATOM     27  C   UNK d   0      -5.901 -23.764  -5.811  0.00  0.00    -0.022 A 
ATOM     28  C   UNK d   0      -5.084 -22.012  -4.740  0.00  0.00     0.042 A 
ATOM     29  H   UNK d   0      -6.484 -21.997  -3.043  0.00  0.00     0.166 HD
ATOM     30  C   UNK d   0      -4.200 -20.938  -4.554  0.00  0.00     0.062 C 
ATOM     31  C   UNK d   0      -4.927 -22.816  -5.894  0.00  0.00    -0.013 A 
ATOM     32  C   UNK d   0      -3.613 -20.510  -3.374  0.00  0.00     0.066 A 
BRANCH   8  33
ATOM     33  C   UNK d   0      -1.542 -18.697  -0.935  0.00  0.00     0.151 C 
BRANCH  33  34
ATOM     34  C   UNK d   0      -2.241 -17.574  -0.285  0.00  0.00     0.143 C 
ATOM     35  O   UNK d   0      -3.311 -17.141  -0.738  0.00  0.00    -0.650 OA
BRANCH  34  36
ATOM     36  O   UNK d   0      -1.695 -16.999   0.840  0.00  0.00    -0.776 OA
ATOM     37  H   UNK d   0      -0.916 -16.330   0.773  0.00  0.00     0.167 HD
ENDBRANCH  34  36
ENDBRANCH  33  34
ENDBRANCH   8  33
BRANCH  31  38
ATOM     38  C   UNK d   0      -3.899 -22.688  -6.994  0.00  0.00     0.151 C 
BRANCH  38  39
ATOM     39  C   UNK d   0      -2.775 -23.584  -6.819  0.00  0.00     0.143 C 
ATOM     40  O   UNK d   0      -2.122 -24.027  -7.780  0.00  0.00    -0.650 OA
BRANCH  39  41
ATOM     41  O   UNK d   0      -2.400 -23.971  -5.533  0.00  0.00    -0.776 OA
ATOM     42  H   UNK d   0      -2.087 -24.939  -5.416  0.00  0.00     0.167 HD
ENDBRANCH  39  41
ENDBRANCH  38  39
ENDBRANCH  31  38
BRANCH  27  43
ATOM     43  C   UNK d   0      -6.103 -24.840  -6.848  0.00  0.00     0.052 C 
BRANCH  43  44
ATOM     44  C   UNK d   0      -7.341 -24.650  -7.663  0.00  0.00     0.115 C 
BRANCH  44  45
ATOM     45  C   UNK d   0      -7.984 -25.985  -7.776  0.00  0.00     0.139 C 
ATOM     46  O   UNK d   0      -9.065 -26.070  -8.409  0.00  0.00    -0.650 OA
BRANCH  45  47
ATOM     47  O   UNK d   0      -7.442 -27.125  -7.222  0.00  0.00    -0.776 OA
ATOM     48  H   UNK d   0      -6.599 -27.586  -7.600  0.00  0.00     0.167 HD
ENDBRANCH  45  47
ENDBRANCH  44  45
ENDBRANCH  43  44
ENDBRANCH  27  43
BRANCH  24  49
ATOM     49  C   UNK d   0      -9.906 -26.624  -3.241  0.00  0.00     0.052 C 
BRANCH  49  50
ATOM     50  C   UNK d   0      -9.198 -27.528  -4.217  0.00  0.00     0.115 C 
BRANCH  50  51
ATOM     51  C   UNK d   0     -10.028 -28.365  -5.072  0.00  0.00     0.139 C 
ATOM     52  O   UNK d   0     -10.589 -29.408  -4.658  0.00  0.00    -0.650 OA
BRANCH  51  53
ATOM     53  O   UNK d   0     -10.218 -28.015  -6.400  0.00  0.00    -0.776 OA
ATOM     54  H   UNK d   0     -11.160 -27.925  -6.738  0.00  0.00     0.167 HD
ENDBRANCH  51  53
ENDBRANCH  50  51
ENDBRANCH  49  50
ENDBRANCH  24  49
BRANCH  21  55
ATOM     55  C   UNK d   0      -9.428 -26.784  -0.193  0.00  0.00     0.151 C 
BRANCH  55  56
ATOM     56  C   UNK d   0     -10.037 -25.995   0.889  0.00  0.00     0.143 C 
ATOM     57  O   UNK d   0      -9.884 -26.273   2.095  0.00  0.00    -0.650 OA
BRANCH  56  58
ATOM     58  O   UNK d   0     -10.815 -24.895   0.532  0.00  0.00    -0.776 OA
ATOM     59  H   UNK d   0     -10.320 -24.171  -0.018  0.00  0.00     0.167 HD
ENDBRANCH  56  58
ENDBRANCH  55  56
ENDBRANCH  21  55
BRANCH  18  60
ATOM     60  C   UNK d   0      -7.272 -22.864   2.775  0.00  0.00     0.151 C 
BRANCH  60  61
ATOM     61  C   UNK d   0      -8.430 -22.065   2.346  0.00  0.00     0.143 C 
ATOM     62  O   UNK d   0      -8.623 -20.867   2.553  0.00  0.00    -0.650 OA
BRANCH  61  63
ATOM     63  O   UNK d   0      -9.415 -22.775   1.617  0.00  0.00    -0.776 OA
ATOM     64  H   UNK d   0      -9.874 -22.359   0.825  0.00  0.00     0.167 HD
ENDBRANCH  61  63
ENDBRANCH  60  61
ENDBRANCH  18  60
BRANCH  14  65
ATOM     65  C   UNK d   0      -5.024 -20.828   2.695  0.00  0.00     0.052 C 
BRANCH  65  66
ATOM     66  C   UNK d   0      -5.756 -19.547   2.506  0.00  0.00     0.115 C 
BRANCH  66  67
ATOM     67  C   UNK d   0      -5.052 -18.389   2.030  0.00  0.00     0.139 C 
ATOM     68  O   UNK d   0      -3.868 -18.163   2.479  0.00  0.00    -0.650 OA
BRANCH  67  69
ATOM     69  O   UNK d   0      -5.496 -17.438   1.112  0.00  0.00    -0.776 OA
ATOM     70  H   UNK d   0      -6.186 -17.770   0.422  0.00  0.00     0.167 HD
ENDBRANCH  67  69
ENDBRANCH  66  67
ENDBRANCH  65  66
ENDBRANCH  14  65
ENDBRANCH   6   7
ENDBRANCH   5   6
ENDBRANCH   2   5
TORSDOF 28
ENDMDL
MODEL 17
REMARK VINA RESULT:      -8.0      1.923      8.921
REMARK  28 active torsions:
REMARK  status: ('A' for Active; 'I' for Inactive)
REMARK    1  A    between atoms: C_2  and  O_3 
REMARK    2  A    between atoms: C_2  and  C_4 
REMARK    3  A    between atoms: C_4  and  C_5 
REMARK    4  A    between atoms: C_5  and  C_6 
REMARK    5  A    between atoms: C_7  and  C_8 
REMARK    6  A    between atoms: C_8  and  C_9 
REMARK    7  A    between atoms: C_9  and  O_11 
REMARK    8  A    between atoms: C_28  and  C_29 
REMARK    9  A    between atoms: C_29  and  C_30 
REMARK   10  A    between atoms: C_30  and  O_32 
REMARK   11  A    between atoms: C_33  and  C_34 
REMARK   12  A    between atoms: C_34  and  C_35 
REMARK   13  A    between atoms: C_35  and  C_36 
REMARK   14  A    between atoms: C_36  and  O_38 
REMARK   15  A    between atoms: C_39  and  C_40 
REMARK   16  A    between atoms: C_40  and  C_41 
REMARK   17  A    between atoms: C_41  and  C_42 
REMARK   18  A    between atoms: C_42  and  O_44 
REMARK   19  A    between atoms: C_45  and  C_46 
REMARK   20  A    between atoms: C_46  and  C_47 
REMARK   21  A    between atoms: C_47  and  O_49 
REMARK   22  A    between atoms: C_50  and  C_51 
REMARK   23  A    between atoms: C_51  and  C_52 
REMARK   24  A    between atoms: C_52  and  O_54 
REMARK   25  A    between atoms: C_55  and  C_56 
REMARK   26  A    between atoms: C_56  and  C_57 
REMARK   27  A    between atoms: C_57  and  C_58 
REMARK   28  A    between atoms: C_58  and  O_60 
ROOT
ATOM      1  O   UNK d   0     -15.671  -7.393 -32.311  0.00  0.00    -0.650 OA
ATOM      2  C   UNK d   0     -16.818  -7.484 -32.802  0.00  0.00     0.139 C 
ENDROOT
BRANCH   2   3
ATOM      3  O   UNK d   0     -17.047  -8.385 -33.813  0.00  0.00    -0.776 OA
ATOM      4  H   UNK d   0     -17.779  -8.224 -34.508  0.00  0.00     0.167 HD
ENDBRANCH   2   3
BRANCH   2   5
ATOM      5  C   UNK d   0     -17.922  -6.622 -32.292  0.00  0.00     0.115 C 
BRANCH   5   6
ATOM      6  C   UNK d   0     -18.057  -6.782 -30.802  0.00  0.00     0.052 C 
BRANCH   6   7
ATOM      7  C   UNK d   0     -19.471  -7.101 -30.378  0.00  0.00    -0.020 A 
ATOM      8  C   UNK d   0     -20.489  -7.391 -31.147  0.00  0.00    -0.011 A 
ATOM      9  C   UNK d   0     -21.643  -7.613 -30.293  0.00  0.00     0.067 A 
ATOM     10  C   UNK d   0     -22.989  -7.966 -30.480  0.00  0.00     0.062 C 
ATOM     11  N   UNK d   0     -21.239  -7.432 -29.018  0.00  0.00    -0.248 NA
ATOM     12  C   UNK d   0     -23.892  -8.409 -29.508  0.00  0.00     0.041 A 
ATOM     13  N   UNK d   0     -24.122  -7.982 -28.252  0.00  0.00    -0.355 N 
ATOM     14  C   UNK d   0     -24.703  -9.524 -29.789  0.00  0.00    -0.022 A 
ATOM     15  C   UNK d   0     -25.052  -8.802 -27.726  0.00  0.00     0.042 A 
ATOM     16  H   UNK d   0     -23.650  -7.106 -27.753  0.00  0.00     0.166 HD
ATOM     17  C   UNK d   0     -25.651  -8.804 -26.450  0.00  0.00     0.062 C 
ATOM     18  C   UNK d   0     -25.440  -9.781 -28.660  0.00  0.00    -0.013 A 
ATOM     19  C   UNK d   0     -25.063  -8.653 -25.221  0.00  0.00     0.067 A 
ATOM     20  N   UNK d   0     -23.788  -8.255 -25.205  0.00  0.00    -0.248 NA
ATOM     21  C   UNK d   0     -25.472  -8.833 -23.838  0.00  0.00    -0.011 A 
ATOM     22  C   UNK d   0     -23.333  -8.163 -23.912  0.00  0.00     0.066 A 
ATOM     23  C   UNK d   0     -22.029  -7.722 -23.747  0.00  0.00     0.062 C 
ATOM     24  C   UNK d   0     -24.454  -8.549 -23.077  0.00  0.00    -0.020 A 
ATOM     25  C   UNK d   0     -21.142  -7.270 -24.737  0.00  0.00     0.041 A 
ATOM     26  N   UNK d   0     -20.903  -7.703 -25.980  0.00  0.00    -0.355 N 
ATOM     27  C   UNK d   0     -20.332  -6.148 -24.455  0.00  0.00    -0.022 A 
ATOM     28  C   UNK d   0     -19.970  -6.893 -26.504  0.00  0.00     0.042 A 
ATOM     29  H   UNK d   0     -21.370  -8.590 -26.476  0.00  0.00     0.166 HD
ATOM     30  C   UNK d   0     -19.358  -6.885 -27.767  0.00  0.00     0.062 C 
ATOM     31  C   UNK d   0     -19.588  -5.902 -25.568  0.00  0.00    -0.013 A 
ATOM     32  C   UNK d   0     -19.942  -7.122 -29.001  0.00  0.00     0.066 A 
BRANCH   8  33
ATOM     33  C   UNK d   0     -20.489  -7.477 -32.619  0.00  0.00     0.151 C 
BRANCH  33  34
ATOM     34  C   UNK d   0     -20.598  -8.862 -33.110  0.00  0.00     0.143 C 
ATOM     35  O   UNK d   0     -19.673  -9.670 -32.945  0.00  0.00    -0.650 OA
BRANCH  34  36
ATOM     36  O   UNK d   0     -21.743  -9.260 -33.761  0.00  0.00    -0.776 OA
ATOM     37  H   UNK d   0     -22.554  -8.633 -33.848  0.00  0.00     0.167 HD
ENDBRANCH  34  36
ENDBRANCH  33  34
ENDBRANCH   8  33
BRANCH  31  38
ATOM     38  C   UNK d   0     -18.583  -4.787 -25.740  0.00  0.00     0.151 C 
BRANCH  38  39
ATOM     39  C   UNK d   0     -17.266  -5.138 -25.254  0.00  0.00     0.143 C 
ATOM     40  O   UNK d   0     -16.944  -6.310 -24.991  0.00  0.00    -0.650 OA
BRANCH  39  41
ATOM     41  O   UNK d   0     -16.313  -4.136 -25.070  0.00  0.00    -0.776 OA
ATOM     42  H   UNK d   0     -15.821  -4.126 -24.171  0.00  0.00     0.167 HD
ENDBRANCH  39  41
ENDBRANCH  38  39
ENDBRANCH  31  38
BRANCH  27  43
ATOM     43  C   UNK d   0     -20.241  -5.323 -23.196  0.00  0.00     0.052 C 
BRANCH  43  44
ATOM     44  C   UNK d   0     -21.359  -4.341 -23.051  0.00  0.00     0.115 C 
BRANCH  44  45
ATOM     45  C   UNK d   0     -22.064  -4.684 -21.788  0.00  0.00     0.139 C 
ATOM     46  O   UNK d   0     -23.186  -4.161 -21.577  0.00  0.00    -0.650 OA
BRANCH  45  47
ATOM     47  O   UNK d   0     -21.541  -5.549 -20.852  0.00  0.00    -0.776 OA
ATOM     48  H   UNK d   0     -21.276  -5.250 -19.899  0.00  0.00     0.167 HD
ENDBRANCH  45  47
ENDBRANCH  44  45
ENDBRANCH  43  44
ENDBRANCH  27  43
BRANCH  24  49
ATOM     49  C   UNK d   0     -24.440  -8.562 -21.604  0.00  0.00     0.052 C 
BRANCH  49  50
ATOM     50  C   UNK d   0     -24.962  -7.256 -21.063  0.00  0.00     0.115 C 
BRANCH  50  51
ATOM     51  C   UNK d   0     -25.612  -7.288 -19.760  0.00  0.00     0.139 C 
ATOM     52  O   UNK d   0     -25.296  -8.110 -18.867  0.00  0.00    -0.650 OA
BRANCH  51  53
ATOM     53  O   UNK d   0     -26.623  -6.384 -19.474  0.00  0.00    -0.776 OA
ATOM     54  H   UNK d   0     -27.568  -6.725 -19.436  0.00  0.00     0.167 HD
ENDBRANCH  51  53
ENDBRANCH  50  51
ENDBRANCH  49  50
ENDBRANCH  24  49
BRANCH  21  55
ATOM     55  C   UNK d   0     -26.838  -9.266 -23.421  0.00  0.00     0.151 C 
BRANCH  55  56
ATOM     56  C   UNK d   0     -27.821  -8.179 -23.539  0.00  0.00     0.143 C 
ATOM     57  O   UNK d   0     -28.918  -8.192 -22.945  0.00  0.00    -0.650 OA
BRANCH  56  58
ATOM     58  O   UNK d   0     -27.496  -7.095 -24.353  0.00  0.00    -0.776 OA
ATOM     59  H   UNK d   0     -26.845  -6.410 -23.927  0.00  0.00     0.167 HD
ENDBRANCH  56  58
ENDBRANCH  55  56
ENDBRANCH  21  55
BRANCH  18  60
ATOM     60  C   UNK d   0     -26.440 -10.902 -28.517  0.00  0.00     0.151 C 
BRANCH  60  61
ATOM     61  C   UNK d   0     -25.655 -12.104 -28.195  0.00  0.00     0.143 C 
ATOM     62  O   UNK d   0     -24.429 -12.213 -28.198  0.00  0.00    -0.650 OA
BRANCH  61  63
ATOM     63  O   UNK d   0     -26.418 -13.245 -27.847  0.00  0.00    -0.776 OA
ATOM     64  H   UNK d   0     -26.515 -13.531 -26.889  0.00  0.00     0.167 HD
ENDBRANCH  61  63
ENDBRANCH  60  61
ENDBRANCH  18  60
BRANCH  14  65
ATOM     65  C   UNK d   0     -24.903 -10.295 -31.063  0.00  0.00     0.052 C 
BRANCH  65  66
ATOM     66  C   UNK d   0     -23.626 -10.621 -31.752  0.00  0.00     0.115 C 
BRANCH  66  67
ATOM     67  C   UNK d   0     -22.671 -11.481 -31.112  0.00  0.00     0.139 C 
ATOM     68  O   UNK d   0     -23.003 -12.701 -30.879  0.00  0.00    -0.650 OA
BRANCH  67  69
ATOM     69  O   UNK d   0     -21.381 -11.159 -30.691  0.00  0.00    -0.776 OA
ATOM     70  H   UNK d   0     -20.646 -11.837 -30.941  0.00  0.00     0.167 HD
ENDBRANCH  67  69
ENDBRANCH  66  67
ENDBRANCH  65  66
ENDBRANCH  14  65
ENDBRANCH   6   7
ENDBRANCH   5   6
ENDBRANCH   2   5
TORSDOF 28
ENDMDL
MODEL 18
REMARK VINA RESULT:      -7.9     30.407     34.318
REMARK  28 active torsions:
REMARK  status: ('A' for Active; 'I' for Inactive)
REMARK    1  A    between atoms: C_2  and  O_3 
REMARK    2  A    between atoms: C_2  and  C_4 
REMARK    3  A    between atoms: C_4  and  C_5 
REMARK    4  A    between atoms: C_5  and  C_6 
REMARK    5  A    between atoms: C_7  and  C_8 
REMARK    6  A    between atoms: C_8  and  C_9 
REMARK    7  A    between atoms: C_9  and  O_11 
REMARK    8  A    between atoms: C_28  and  C_29 
REMARK    9  A    between atoms: C_29  and  C_30 
REMARK   10  A    between atoms: C_30  and  O_32 
REMARK   11  A    between atoms: C_33  and  C_34 
REMARK   12  A    between atoms: C_34  and  C_35 
REMARK   13  A    between atoms: C_35  and  C_36 
REMARK   14  A    between atoms: C_36  and  O_38 
REMARK   15  A    between atoms: C_39  and  C_40 
REMARK   16  A    between atoms: C_40  and  C_41 
REMARK   17  A    between atoms: C_41  and  C_42 
REMARK   18  A    between atoms: C_42  and  O_44 
REMARK   19  A    between atoms: C_45  and  C_46 
REMARK   20  A    between atoms: C_46  and  C_47 
REMARK   21  A    between atoms: C_47  and  O_49 
REMARK   22  A    between atoms: C_50  and  C_51 
REMARK   23  A    between atoms: C_51  and  C_52 
REMARK   24  A    between atoms: C_52  and  O_54 
REMARK   25  A    between atoms: C_55  and  C_56 
REMARK   26  A    between atoms: C_56  and  C_57 
REMARK   27  A    between atoms: C_57  and  C_58 
REMARK   28  A    between atoms: C_58  and  O_60 
ROOT
ATOM      1  O   UNK d   0      -1.316 -18.973  -0.893  0.00  0.00    -0.650 OA
ATOM      2  C   UNK d   0      -0.627 -19.814  -1.513  0.00  0.00     0.139 C 
ENDROOT
BRANCH   2   3
ATOM      3  O   UNK d   0       0.450 -20.395  -0.889  0.00  0.00    -0.776 OA
ATOM      4  H   UNK d   0       0.692 -21.374  -1.056  0.00  0.00     0.167 HD
ENDBRANCH   2   3
BRANCH   2   5
ATOM      5  C   UNK d   0      -0.976 -20.178  -2.916  0.00  0.00     0.115 C 
BRANCH   5   6
ATOM      6  C   UNK d   0      -1.219 -21.659  -3.021  0.00  0.00     0.052 C 
BRANCH   6   7
ATOM      7  C   UNK d   0      -2.678 -21.997  -3.211  0.00  0.00    -0.020 A 
ATOM      8  C   UNK d   0      -3.304 -22.230  -4.336  0.00  0.00    -0.011 A 
ATOM      9  C   UNK d   0      -4.697 -22.501  -4.023  0.00  0.00     0.067 A 
ATOM     10  C   UNK d   0      -5.851 -22.834  -4.748  0.00  0.00     0.062 C 
ATOM     11  N   UNK d   0      -4.832 -22.406  -2.683  0.00  0.00    -0.248 NA
ATOM     12  C   UNK d   0      -7.056 -23.334  -4.240  0.00  0.00     0.041 A 
ATOM     13  N   UNK d   0      -7.771 -22.989  -3.153  0.00  0.00    -0.355 N 
ATOM     14  C   UNK d   0      -7.666 -24.424  -4.888  0.00  0.00    -0.022 A 
ATOM     15  C   UNK d   0      -8.816 -23.836  -3.089  0.00  0.00     0.042 A 
ATOM     16  H   UNK d   0      -7.553 -22.150  -2.456  0.00  0.00     0.166 HD
ATOM     17  C   UNK d   0      -9.869 -23.918  -2.157  0.00  0.00     0.062 C 
ATOM     18  C   UNK d   0      -8.784 -24.750  -4.160  0.00  0.00    -0.013 A 
ATOM     19  C   UNK d   0      -9.817 -23.851  -0.789  0.00  0.00     0.067 A 
ATOM     20  N   UNK d   0      -8.660 -23.462  -0.246  0.00  0.00    -0.248 NA
ATOM     21  C   UNK d   0     -10.734 -24.119   0.306  0.00  0.00    -0.011 A 
ATOM     22  C   UNK d   0      -8.755 -23.458   1.124  0.00  0.00     0.066 A 
ATOM     23  C   UNK d   0      -7.630 -23.035   1.818  0.00  0.00     0.062 C 
ATOM     24  C   UNK d   0     -10.105 -23.891   1.423  0.00  0.00    -0.020 A 
ATOM     25  C   UNK d   0      -6.435 -22.524   1.289  0.00  0.00     0.041 A 
ATOM     26  N   UNK d   0      -5.716 -22.877   0.217  0.00  0.00    -0.355 N 
ATOM     27  C   UNK d   0      -5.825 -21.428   1.937  0.00  0.00    -0.022 A 
ATOM     28  C   UNK d   0      -4.669 -22.039   0.156  0.00  0.00     0.042 A 
ATOM     29  H   UNK d   0      -5.930 -23.727  -0.477  0.00  0.00     0.166 HD
ATOM     30  C   UNK d   0      -3.608 -21.952  -0.759  0.00  0.00     0.062 C 
ATOM     31  C   UNK d   0      -4.707 -21.114   1.226  0.00  0.00    -0.013 A 
ATOM     32  C   UNK d   0      -3.653 -22.105  -2.136  0.00  0.00     0.066 A 
BRANCH   8  33
ATOM     33  C   UNK d   0      -2.722 -22.219  -5.691  0.00  0.00     0.151 C 
BRANCH  33  34
ATOM     34  C   UNK d   0      -2.827 -23.525  -6.368  0.00  0.00     0.143 C 
ATOM     35  O   UNK d   0      -2.307 -24.538  -5.880  0.00  0.00    -0.650 OA
BRANCH  34  36
ATOM     36  O   UNK d   0      -3.513 -23.615  -7.557  0.00  0.00    -0.776 OA
ATOM     37  H   UNK d   0      -3.050 -23.422  -8.456  0.00  0.00     0.167 HD
ENDBRANCH  34  36
ENDBRANCH  33  34
ENDBRANCH   8  33
BRANCH  31  38
ATOM     38  C   UNK d   0      -3.739 -19.995   1.535  0.00  0.00     0.151 C 
BRANCH  38  39
ATOM     39  C   UNK d   0      -2.583 -20.443   2.282  0.00  0.00     0.143 C 
ATOM     40  O   UNK d   0      -2.581 -20.516   3.524  0.00  0.00    -0.650 OA
BRANCH  39  41
ATOM     41  O   UNK d   0      -1.424 -20.809   1.599  0.00  0.00    -0.776 OA
ATOM     42  H   UNK d   0      -1.164 -21.800   1.629  0.00  0.00     0.167 HD
ENDBRANCH  39  41
ENDBRANCH  38  39
ENDBRANCH  31  38
BRANCH  27  43
ATOM     43  C   UNK d   0      -6.255 -20.687   3.179  0.00  0.00     0.052 C 
BRANCH  43  44
ATOM     44  C   UNK d   0      -7.737 -20.529   3.288  0.00  0.00     0.115 C 
BRANCH  44  45
ATOM     45  C   UNK d   0      -8.059 -19.175   2.768  0.00  0.00     0.139 C 
ATOM     46  O   UNK d   0      -9.266 -18.830   2.720  0.00  0.00    -0.650 OA
BRANCH  45  47
ATOM     47  O   UNK d   0      -7.093 -18.287   2.345  0.00  0.00    -0.776 OA
ATOM     48  H   UNK d   0      -7.305 -17.312   2.081  0.00  0.00     0.167 HD
ENDBRANCH  45  47
ENDBRANCH  44  45
ENDBRANCH  43  44
ENDBRANCH  27  43
BRANCH  24  49
ATOM     49  C   UNK d   0     -10.673 -24.000   2.778  0.00  0.00     0.052 C 
BRANCH  49  50
ATOM     50  C   UNK d   0     -10.761 -22.640   3.421  0.00  0.00     0.115 C 
BRANCH  50  51
ATOM     51  C   UNK d   0     -11.827 -21.757   2.967  0.00  0.00     0.139 C 
ATOM     52  O   UNK d   0     -13.020 -21.899   3.325  0.00  0.00    -0.650 OA
BRANCH  51  53
ATOM     53  O   UNK d   0     -11.533 -20.714   2.103  0.00  0.00    -0.776 OA
ATOM     54  H   UNK d   0     -12.293 -20.267   1.621  0.00  0.00     0.167 HD
ENDBRANCH  51  53
ENDBRANCH  50  51
ENDBRANCH  49  50
ENDBRANCH  24  49
BRANCH  21  55
ATOM     55  C   UNK d   0     -12.145 -24.571   0.122  0.00  0.00     0.151 C 
BRANCH  55  56
ATOM     56  C   UNK d   0     -13.084 -23.440   0.070  0.00  0.00     0.143 C 
ATOM     57  O   UNK d   0     -12.754 -22.306  -0.331  0.00  0.00    -0.650 OA
BRANCH  56  58
ATOM     58  O   UNK d   0     -14.394 -23.663   0.491  0.00  0.00    -0.776 OA
ATOM     59  H   UNK d   0     -15.056 -22.893   0.286  0.00  0.00     0.167 HD
ENDBRANCH  56  58
ENDBRANCH  55  56
ENDBRANCH  21  55
BRANCH  18  60
ATOM     60  C   UNK d   0      -9.735 -25.872  -4.494  0.00  0.00     0.151 C 
BRANCH  60  61
ATOM     61  C   UNK d   0      -9.298 -27.025  -3.691  0.00  0.00     0.143 C 
ATOM     62  O   UNK d   0      -8.177 -27.535  -3.674  0.00  0.00    -0.650 OA
BRANCH  61  63
ATOM     63  O   UNK d   0     -10.292 -27.590  -2.857  0.00  0.00    -0.776 OA
ATOM     64  H   UNK d   0     -10.197 -27.580  -1.857  0.00  0.00     0.167 HD
ENDBRANCH  61  63
ENDBRANCH  60  61
ENDBRANCH  18  60
BRANCH  14  65
ATOM     65  C   UNK d   0      -7.332 -25.109  -6.182  0.00  0.00     0.052 C 
BRANCH  65  66
ATOM     66  C   UNK d   0      -7.609 -24.265  -7.375  0.00  0.00     0.115 C 
BRANCH  66  67
ATOM     67  C   UNK d   0      -6.839 -24.450  -8.573  0.00  0.00     0.139 C 
ATOM     68  O   UNK d   0      -6.922 -25.577  -9.187  0.00  0.00    -0.650 OA
BRANCH  67  69
ATOM     69  O   UNK d   0      -5.979 -23.539  -9.185  0.00  0.00    -0.776 OA
ATOM     70  H   UNK d   0      -5.347 -23.026  -8.553  0.00  0.00     0.167 HD
ENDBRANCH  67  69
ENDBRANCH  66  67
ENDBRANCH  65  66
ENDBRANCH  14  65
ENDBRANCH   6   7
ENDBRANCH   5   6
ENDBRANCH   2   5
TORSDOF 28
ENDMDL
MODEL 19
REMARK VINA RESULT:      -7.8     31.110     34.773
REMARK  28 active torsions:
REMARK  status: ('A' for Active; 'I' for Inactive)
REMARK    1  A    between atoms: C_2  and  O_3 
REMARK    2  A    between atoms: C_2  and  C_4 
REMARK    3  A    between atoms: C_4  and  C_5 
REMARK    4  A    between atoms: C_5  and  C_6 
REMARK    5  A    between atoms: C_7  and  C_8 
REMARK    6  A    between atoms: C_8  and  C_9 
REMARK    7  A    between atoms: C_9  and  O_11 
REMARK    8  A    between atoms: C_28  and  C_29 
REMARK    9  A    between atoms: C_29  and  C_30 
REMARK   10  A    between atoms: C_30  and  O_32 
REMARK   11  A    between atoms: C_33  and  C_34 
REMARK   12  A    between atoms: C_34  and  C_35 
REMARK   13  A    between atoms: C_35  and  C_36 
REMARK   14  A    between atoms: C_36  and  O_38 
REMARK   15  A    between atoms: C_39  and  C_40 
REMARK   16  A    between atoms: C_40  and  C_41 
REMARK   17  A    between atoms: C_41  and  C_42 
REMARK   18  A    between atoms: C_42  and  O_44 
REMARK   19  A    between atoms: C_45  and  C_46 
REMARK   20  A    between atoms: C_46  and  C_47 
REMARK   21  A    between atoms: C_47  and  O_49 
REMARK   22  A    between atoms: C_50  and  C_51 
REMARK   23  A    between atoms: C_51  and  C_52 
REMARK   24  A    between atoms: C_52  and  O_54 
REMARK   25  A    between atoms: C_55  and  C_56 
REMARK   26  A    between atoms: C_56  and  C_57 
REMARK   27  A    between atoms: C_57  and  C_58 
REMARK   28  A    between atoms: C_58  and  O_60 
ROOT
ATOM      1  O   UNK d   0     -15.592 -17.036   2.088  0.00  0.00    -0.650 OA
ATOM      2  C   UNK d   0     -15.047 -17.724   1.195  0.00  0.00     0.139 C 
ENDROOT
BRANCH   2   3
ATOM      3  O   UNK d   0     -14.171 -17.123   0.323  0.00  0.00    -0.776 OA
ATOM      4  H   UNK d   0     -13.160 -17.209   0.448  0.00  0.00     0.167 HD
ENDBRANCH   2   3
BRANCH   2   5
ATOM      5  C   UNK d   0     -15.350 -19.179   1.083  0.00  0.00     0.115 C 
BRANCH   5   6
ATOM      6  C   UNK d   0     -15.012 -19.879   2.371  0.00  0.00     0.052 C 
BRANCH   6   7
ATOM      7  C   UNK d   0     -13.758 -20.714   2.267  0.00  0.00    -0.020 A 
ATOM      8  C   UNK d   0     -13.667 -21.981   1.953  0.00  0.00    -0.011 A 
ATOM      9  C   UNK d   0     -12.261 -22.349   1.990  0.00  0.00     0.067 A 
ATOM     10  C   UNK d   0     -11.511 -23.509   1.743  0.00  0.00     0.062 C 
ATOM     11  N   UNK d   0     -11.568 -21.246   2.341  0.00  0.00    -0.248 NA
ATOM     12  C   UNK d   0     -10.127 -23.601   1.559  0.00  0.00     0.041 A 
ATOM     13  N   UNK d   0      -9.106 -23.012   2.211  0.00  0.00    -0.355 N 
ATOM     14  C   UNK d   0      -9.632 -24.379   0.498  0.00  0.00    -0.022 A 
ATOM     15  C   UNK d   0      -7.976 -23.392   1.584  0.00  0.00     0.042 A 
ATOM     16  H   UNK d   0      -9.181 -22.358   3.107  0.00  0.00     0.166 HD
ATOM     17  C   UNK d   0      -6.631 -23.069   1.853  0.00  0.00     0.062 C 
ATOM     18  C   UNK d   0      -8.265 -24.249   0.505  0.00  0.00    -0.013 A 
ATOM     19  C   UNK d   0      -6.079 -21.849   2.149  0.00  0.00     0.067 A 
ATOM     20  N   UNK d   0      -6.925 -20.852   2.418  0.00  0.00    -0.248 NA
ATOM     21  C   UNK d   0      -4.734 -21.306   2.243  0.00  0.00    -0.011 A 
ATOM     22  C   UNK d   0      -6.232 -19.695   2.679  0.00  0.00     0.066 A 
ATOM     23  C   UNK d   0      -6.991 -18.583   3.013  0.00  0.00     0.062 C 
ATOM     24  C   UNK d   0      -4.831 -20.044   2.549  0.00  0.00    -0.020 A 
ATOM     25  C   UNK d   0      -8.379 -18.516   3.205  0.00  0.00     0.041 A 
ATOM     26  N   UNK d   0      -9.396 -19.088   2.549  0.00  0.00    -0.355 N 
ATOM     27  C   UNK d   0      -8.876 -17.737   4.274  0.00  0.00    -0.022 A 
ATOM     28  C   UNK d   0     -10.524 -18.705   3.166  0.00  0.00     0.042 A 
ATOM     29  H   UNK d   0      -9.319 -19.737   1.642  0.00  0.00     0.166 HD
ATOM     30  C   UNK d   0     -11.869 -19.010   2.903  0.00  0.00     0.062 C 
ATOM     31  C   UNK d   0     -10.232 -17.852   4.257  0.00  0.00    -0.013 A 
ATOM     32  C   UNK d   0     -12.410 -20.228   2.521  0.00  0.00     0.066 A 
BRANCH   8  33
ATOM     33  C   UNK d   0     -14.778 -22.893   1.624  0.00  0.00     0.151 C 
BRANCH  33  34
ATOM     34  C   UNK d   0     -14.753 -23.338   0.219  0.00  0.00     0.143 C 
ATOM     35  O   UNK d   0     -14.854 -22.523  -0.709  0.00  0.00    -0.650 OA
BRANCH  34  36
ATOM     36  O   UNK d   0     -14.618 -24.678  -0.064  0.00  0.00    -0.776 OA
ATOM     37  H   UNK d   0     -15.434 -25.261  -0.292  0.00  0.00     0.167 HD
ENDBRANCH  34  36
ENDBRANCH  33  34
ENDBRANCH   8  33
BRANCH  31  38
ATOM     38  C   UNK d   0     -11.194 -17.203   5.224  0.00  0.00     0.151 C 
BRANCH  38  39
ATOM     39  C   UNK d   0     -11.327 -17.940   6.463  0.00  0.00     0.143 C 
ATOM     40  O   UNK d   0     -11.751 -19.108   6.500  0.00  0.00    -0.650 OA
BRANCH  39  41
ATOM     41  O   UNK d   0     -10.970 -17.331   7.666  0.00  0.00    -0.776 OA
ATOM     42  H   UNK d   0     -11.596 -16.599   8.016  0.00  0.00     0.167 HD
ENDBRANCH  39  41
ENDBRANCH  38  39
ENDBRANCH  31  38
BRANCH  27  43
ATOM     43  C   UNK d   0      -8.125 -16.907   5.284  0.00  0.00     0.052 C 
BRANCH  43  44
ATOM     44  C   UNK d   0      -7.932 -15.488   4.858  0.00  0.00     0.115 C 
BRANCH  44  45
ATOM     45  C   UNK d   0      -8.745 -14.654   5.781  0.00  0.00     0.139 C 
ATOM     46  O   UNK d   0      -9.047 -15.133   6.902  0.00  0.00    -0.650 OA
BRANCH  45  47
ATOM     47  O   UNK d   0      -9.172 -13.383   5.460  0.00  0.00    -0.776 OA
ATOM     48  H   UNK d   0      -8.843 -12.540   5.957  0.00  0.00     0.167 HD
ENDBRANCH  45  47
ENDBRANCH  44  45
ENDBRANCH  43  44
ENDBRANCH  27  43
BRANCH  24  49
ATOM     49  C   UNK d   0      -3.709 -19.118   2.781  0.00  0.00     0.052 C 
BRANCH  49  50
ATOM     50  C   UNK d   0      -3.914 -17.841   2.007  0.00  0.00     0.115 C 
BRANCH  50  51
ATOM     51  C   UNK d   0      -2.903 -17.493   1.018  0.00  0.00     0.139 C 
ATOM     52  O   UNK d   0      -2.811 -16.346   0.520  0.00  0.00    -0.650 OA
BRANCH  51  53
ATOM     53  O   UNK d   0      -1.996 -18.453   0.596  0.00  0.00    -0.776 OA
ATOM     54  H   UNK d   0      -1.664 -18.409  -0.352  0.00  0.00     0.167 HD
ENDBRANCH  51  53
ENDBRANCH  50  51
ENDBRANCH  49  50
ENDBRANCH  24  49
BRANCH  21  55
ATOM     55  C   UNK d   0      -3.493 -22.105   2.021  0.00  0.00     0.151 C 
BRANCH  55  56
ATOM     56  C   UNK d   0      -2.828 -21.752   0.757  0.00  0.00     0.143 C 
ATOM     57  O   UNK d   0      -3.346 -21.958  -0.358  0.00  0.00    -0.650 OA
BRANCH  56  58
ATOM     58  O   UNK d   0      -1.567 -21.162   0.829  0.00  0.00    -0.776 OA
ATOM     59  H   UNK d   0      -0.966 -21.511   1.598  0.00  0.00     0.167 HD
ENDBRANCH  56  58
ENDBRANCH  55  56
ENDBRANCH  21  55
BRANCH  18  60
ATOM     60  C   UNK d   0      -7.328 -24.912  -0.473  0.00  0.00     0.151 C 
BRANCH  60  61
ATOM     61  C   UNK d   0      -7.313 -26.338  -0.114  0.00  0.00     0.143 C 
ATOM     62  O   UNK d   0      -7.180 -26.819   1.011  0.00  0.00    -0.650 OA
BRANCH  61  63
ATOM     63  O   UNK d   0      -7.472 -27.234  -1.199  0.00  0.00    -0.776 OA
ATOM     64  H   UNK d   0      -7.134 -27.003  -2.116  0.00  0.00     0.167 HD
ENDBRANCH  61  63
ENDBRANCH  60  61
ENDBRANCH  18  60
BRANCH  14  65
ATOM     65  C   UNK d   0     -10.337 -25.306  -0.452  0.00  0.00     0.052 C 
BRANCH  65  66
ATOM     66  C   UNK d   0     -10.571 -24.700  -1.790  0.00  0.00     0.115 C 
BRANCH  66  67
ATOM     67  C   UNK d   0     -11.734 -23.887  -2.009  0.00  0.00     0.139 C 
ATOM     68  O   UNK d   0     -11.675 -22.638  -1.709  0.00  0.00    -0.650 OA
BRANCH  67  69
ATOM     69  O   UNK d   0     -12.968 -24.283  -2.524  0.00  0.00    -0.776 OA
ATOM     70  H   UNK d   0     -13.326 -23.723  -3.311  0.00  0.00     0.167 HD
ENDBRANCH  67  69
ENDBRANCH  66  67
ENDBRANCH  65  66
ENDBRANCH  14  65
ENDBRANCH   6   7
ENDBRANCH   5   6
ENDBRANCH   2   5
TORSDOF 28
ENDMDL
MODEL 20
REMARK VINA RESULT:      -7.7     26.735     30.571
REMARK  28 active torsions:
REMARK  status: ('A' for Active; 'I' for Inactive)
REMARK    1  A    between atoms: C_2  and  O_3 
REMARK    2  A    between atoms: C_2  and  C_4 
REMARK    3  A    between atoms: C_4  and  C_5 
REMARK    4  A    between atoms: C_5  and  C_6 
REMARK    5  A    between atoms: C_7  and  C_8 
REMARK    6  A    between atoms: C_8  and  C_9 
REMARK    7  A    between atoms: C_9  and  O_11 
REMARK    8  A    between atoms: C_28  and  C_29 
REMARK    9  A    between atoms: C_29  and  C_30 
REMARK   10  A    between atoms: C_30  and  O_32 
REMARK   11  A    between atoms: C_33  and  C_34 
REMARK   12  A    between atoms: C_34  and  C_35 
REMARK   13  A    between atoms: C_35  and  C_36 
REMARK   14  A    between atoms: C_36  and  O_38 
REMARK   15  A    between atoms: C_39  and  C_40 
REMARK   16  A    between atoms: C_40  and  C_41 
REMARK   17  A    between atoms: C_41  and  C_42 
REMARK   18  A    between atoms: C_42  and  O_44 
REMARK   19  A    between atoms: C_45  and  C_46 
REMARK   20  A    between atoms: C_46  and  C_47 
REMARK   21  A    between atoms: C_47  and  O_49 
REMARK   22  A    between atoms: C_50  and  C_51 
REMARK   23  A    between atoms: C_51  and  C_52 
REMARK   24  A    between atoms: C_52  and  O_54 
REMARK   25  A    between atoms: C_55  and  C_56 
REMARK   26  A    between atoms: C_56  and  C_57 
REMARK   27  A    between atoms: C_57  and  C_58 
REMARK   28  A    between atoms: C_58  and  O_60 
ROOT
ATOM      1  O   UNK d   0     -10.901 -27.656  -0.159  0.00  0.00    -0.650 OA
ATOM      2  C   UNK d   0      -9.819 -27.178   0.250  0.00  0.00     0.139 C 
ENDROOT
BRANCH   2   3
ATOM      3  O   UNK d   0      -8.680 -27.353  -0.498  0.00  0.00    -0.776 OA
ATOM      4  H   UNK d   0      -7.960 -26.629  -0.541  0.00  0.00     0.167 HD
ENDBRANCH   2   3
BRANCH   2   5
ATOM      5  C   UNK d   0      -9.772 -26.427   1.536  0.00  0.00     0.115 C 
BRANCH   5   6
ATOM      6  C   UNK d   0      -9.118 -25.088   1.331  0.00  0.00     0.052 C 
BRANCH   6   7
ATOM      7  C   UNK d   0     -10.093 -24.030   0.872  0.00  0.00    -0.020 A 
ATOM      8  C   UNK d   0     -10.860 -23.274   1.616  0.00  0.00    -0.011 A 
ATOM      9  C   UNK d   0     -11.630 -22.415   0.733  0.00  0.00     0.067 A 
ATOM     10  C   UNK d   0     -12.584 -21.398   0.889  0.00  0.00     0.062 C 
ATOM     11  N   UNK d   0     -11.273 -22.719  -0.533  0.00  0.00    -0.248 NA
ATOM     12  C   UNK d   0     -13.015 -20.484  -0.080  0.00  0.00     0.041 A 
ATOM     13  N   UNK d   0     -13.323 -20.650  -1.380  0.00  0.00    -0.355 N 
ATOM     14  C   UNK d   0     -13.120 -19.125   0.266  0.00  0.00    -0.022 A 
ATOM     15  C   UNK d   0     -13.614 -19.430  -1.870  0.00  0.00     0.042 A 
ATOM     16  H   UNK d   0     -13.354 -21.613  -1.935  0.00  0.00     0.166 HD
ATOM     17  C   UNK d   0     -13.999 -19.034  -3.166  0.00  0.00     0.062 C 
ATOM     18  C   UNK d   0     -13.496 -18.448  -0.867  0.00  0.00    -0.013 A 
ATOM     19  C   UNK d   0     -13.476 -19.415  -4.375  0.00  0.00     0.067 A 
ATOM     20  N   UNK d   0     -12.621 -20.441  -4.368  0.00  0.00    -0.248 NA
ATOM     21  C   UNK d   0     -13.597 -18.968  -5.753  0.00  0.00    -0.011 A 
ATOM     22  C   UNK d   0     -12.172 -20.696  -5.641  0.00  0.00     0.066 A 
ATOM     23  C   UNK d   0     -11.301 -21.766  -5.784  0.00  0.00     0.062 C 
ATOM     24  C   UNK d   0     -12.828 -19.719  -6.488  0.00  0.00    -0.020 A 
ATOM     25  C   UNK d   0     -10.891 -22.680  -4.801  0.00  0.00     0.041 A 
ATOM     26  N   UNK d   0     -10.570 -22.513  -3.513  0.00  0.00    -0.355 N 
ATOM     27  C   UNK d   0     -10.791 -24.045  -5.148  0.00  0.00    -0.022 A 
ATOM     28  C   UNK d   0     -10.272 -23.727  -3.024  0.00  0.00     0.042 A 
ATOM     29  H   UNK d   0     -10.529 -21.543  -2.958  0.00  0.00     0.166 HD
ATOM     30  C   UNK d   0      -9.878 -24.133  -1.739  0.00  0.00     0.062 C 
ATOM     31  C   UNK d   0     -10.400 -24.714  -4.029  0.00  0.00    -0.013 A 
ATOM     32  C   UNK d   0     -10.351 -23.682  -0.517  0.00  0.00     0.066 A 
BRANCH   8  33
ATOM     33  C   UNK d   0     -10.947 -23.281   3.088  0.00  0.00     0.151 C 
BRANCH  33  34
ATOM     34  C   UNK d   0     -10.391 -22.059   3.698  0.00  0.00     0.143 C 
ATOM     35  O   UNK d   0     -10.907 -21.561   4.708  0.00  0.00    -0.650 OA
BRANCH  34  36
ATOM     36  O   UNK d   0      -9.285 -21.466   3.135  0.00  0.00    -0.776 OA
ATOM     37  H   UNK d   0      -8.493 -21.154   3.713  0.00  0.00     0.167 HD
ENDBRANCH  34  36
ENDBRANCH  33  34
ENDBRANCH   8  33
BRANCH  31  38
ATOM     38  C   UNK d   0     -10.174 -26.204  -3.915  0.00  0.00     0.151 C 
BRANCH  38  39
ATOM     39  C   UNK d   0      -8.791 -26.579  -4.117  0.00  0.00     0.143 C 
ATOM     40  O   UNK d   0      -8.157 -26.260  -5.138  0.00  0.00    -0.650 OA
BRANCH  39  41
ATOM     41  O   UNK d   0      -8.132 -27.325  -3.140  0.00  0.00    -0.776 OA
ATOM     42  H   UNK d   0      -8.392 -28.313  -3.060  0.00  0.00     0.167 HD
ENDBRANCH  39  41
ENDBRANCH  38  39
ENDBRANCH  31  38
BRANCH  27  43
ATOM     43  C   UNK d   0     -11.045 -24.718  -6.473  0.00  0.00     0.052 C 
BRANCH  43  44
ATOM     44  C   UNK d   0     -12.356 -25.432  -6.532  0.00  0.00     0.115 C 
BRANCH  44  45
ATOM     45  C   UNK d   0     -13.077 -24.898  -7.717  0.00  0.00     0.139 C 
ATOM     46  O   UNK d   0     -13.468 -23.705  -7.684  0.00  0.00    -0.650 OA
BRANCH  45  47
ATOM     47  O   UNK d   0     -13.326 -25.653  -8.843  0.00  0.00    -0.776 OA
ATOM     48  H   UNK d   0     -12.666 -26.364  -9.198  0.00  0.00     0.167 HD
ENDBRANCH  45  47
ENDBRANCH  44  45
ENDBRANCH  43  44
ENDBRANCH  27  43
BRANCH  24  49
ATOM     49  C   UNK d   0     -12.675 -19.637  -7.951  0.00  0.00     0.052 C 
BRANCH  49  50
ATOM     50  C   UNK d   0     -13.822 -20.334  -8.637  0.00  0.00     0.115 C 
BRANCH  50  51
ATOM     51  C   UNK d   0     -14.665 -19.527  -9.509  0.00  0.00     0.139 C 
ATOM     52  O   UNK d   0     -15.533 -20.026 -10.263  0.00  0.00    -0.650 OA
BRANCH  51  53
ATOM     53  O   UNK d   0     -14.515 -18.148  -9.524  0.00  0.00    -0.776 OA
ATOM     54  H   UNK d   0     -15.251 -17.595  -9.925  0.00  0.00     0.167 HD
ENDBRANCH  51  53
ENDBRANCH  50  51
ENDBRANCH  49  50
ENDBRANCH  24  49
BRANCH  21  55
ATOM     55  C   UNK d   0     -14.471 -17.841  -6.192  0.00  0.00     0.151 C 
BRANCH  55  56
ATOM     56  C   UNK d   0     -13.719 -16.585  -6.336  0.00  0.00     0.143 C 
ATOM     57  O   UNK d   0     -13.381 -15.884  -5.362  0.00  0.00    -0.650 OA
BRANCH  56  58
ATOM     58  O   UNK d   0     -13.380 -16.176  -7.625  0.00  0.00    -0.776 OA
ATOM     59  H   UNK d   0     -12.386 -15.913  -7.752  0.00  0.00     0.167 HD
ENDBRANCH  56  58
ENDBRANCH  55  56
ENDBRANCH  21  55
BRANCH  18  60
ATOM     60  C   UNK d   0     -13.718 -16.958  -0.951  0.00  0.00     0.151 C 
BRANCH  60  61
ATOM     61  C   UNK d   0     -12.529 -16.410  -1.621  0.00  0.00     0.143 C 
ATOM     62  O   UNK d   0     -11.353 -16.698  -1.397  0.00  0.00    -0.650 OA
BRANCH  61  63
ATOM     63  O   UNK d   0     -12.793 -15.450  -2.627  0.00  0.00    -0.776 OA
ATOM     64  H   UNK d   0     -13.143 -14.538  -2.395  0.00  0.00     0.167 HD
ENDBRANCH  61  63
ENDBRANCH  60  61
ENDBRANCH  18  60
BRANCH  14  65
ATOM     65  C   UNK d   0     -12.988 -18.438   1.596  0.00  0.00     0.052 C 
BRANCH  65  66
ATOM     66  C   UNK d   0     -11.651 -17.817   1.800  0.00  0.00     0.115 C 
BRANCH  66  67
ATOM     67  C   UNK d   0     -10.734 -18.397   2.740  0.00  0.00     0.139 C 
ATOM     68  O   UNK d   0      -9.517 -18.588   2.372  0.00  0.00    -0.650 OA
BRANCH  67  69
ATOM     69  O   UNK d   0     -10.994 -18.798   4.050  0.00  0.00    -0.776 OA
ATOM     70  H   UNK d   0     -10.800 -18.097   4.780  0.00  0.00     0.167 HD
ENDBRANCH  67  69
ENDBRANCH  66  67
ENDBRANCH  65  66
ENDBRANCH  14  65
ENDBRANCH   6   7
ENDBRANCH   5   6
ENDBRANCH   2   5
TORSDOF 28
ENDMDL
