MODEL 1
REMARK VINA RESULT:     -10.0      0.000      0.000
REMARK  28 active torsions:
REMARK  status: ('A' for Active; 'I' for Inactive)
REMARK    1  A    between atoms: C_2  and  O_3 
REMARK    2  A    between atoms: C_2  and  C_4 
REMARK    3  A    between atoms: C_4  and  C_5 
REMARK    4  A    between atoms: C_5  and  C_6 
REMARK    5  A    between atoms: C_7  and  C_8 
REMARK    6  A    between atoms: C_8  and  C_9 
REMARK    7  A    between atoms: C_9  and  O_11 
REMARK    8  A    between atoms: C_28  and  C_29 
REMARK    9  A    between atoms: C_29  and  C_30 
REMARK   10  A    between atoms: C_30  and  O_32 
REMARK   11  A    between atoms: C_33  and  C_34 
REMARK   12  A    between atoms: C_34  and  C_35 
REMARK   13  A    between atoms: C_35  and  C_36 
REMARK   14  A    between atoms: C_36  and  O_38 
REMARK   15  A    between atoms: C_39  and  C_40 
REMARK   16  A    between atoms: C_40  and  C_41 
REMARK   17  A    between atoms: C_41  and  C_42 
REMARK   18  A    between atoms: C_42  and  O_44 
REMARK   19  A    between atoms: C_45  and  C_46 
REMARK   20  A    between atoms: C_46  and  C_47 
REMARK   21  A    between atoms: C_47  and  O_49 
REMARK   22  A    between atoms: C_50  and  C_51 
REMARK   23  A    between atoms: C_51  and  C_52 
REMARK   24  A    between atoms: C_52  and  O_54 
REMARK   25  A    between atoms: C_55  and  C_56 
REMARK   26  A    between atoms: C_56  and  C_57 
REMARK   27  A    between atoms: C_57  and  C_58 
REMARK   28  A    between atoms: C_58  and  O_60 
ROOT
ATOM      1  O   UNK d   0      39.098  -3.063  47.193  0.00  0.00    -0.650 OA
ATOM      2  C   UNK d   0      37.870  -3.051  47.430  0.00  0.00     0.139 C 
ENDROOT
BRANCH   2   3
ATOM      3  O   UNK d   0      37.248  -4.212  47.823  0.00  0.00    -0.776 OA
ATOM      4  H   UNK d   0      37.286  -5.053  47.243  0.00  0.00     0.167 HD
ENDBRANCH   2   3
BRANCH   2   5
ATOM      5  C   UNK d   0      37.092  -1.788  47.286  0.00  0.00     0.115 C 
BRANCH   5   6
ATOM      6  C   UNK d   0      35.622  -2.064  47.446  0.00  0.00     0.052 C 
BRANCH   6   7
ATOM      7  C   UNK d   0      34.848  -1.856  46.166  0.00  0.00    -0.020 A 
ATOM      8  C   UNK d   0      34.233  -0.770  45.773  0.00  0.00    -0.011 A 
ATOM      9  C   UNK d   0      33.622  -1.047  44.484  0.00  0.00     0.067 A 
ATOM     10  C   UNK d   0      32.865  -0.327  43.546  0.00  0.00     0.062 C 
ATOM     11  N   UNK d   0      33.912  -2.327  44.170  0.00  0.00    -0.248 NA
ATOM     12  C   UNK d   0      32.599  -0.683  42.220  0.00  0.00     0.041 A 
ATOM     13  N   UNK d   0      32.257  -1.864  41.670  0.00  0.00    -0.355 N 
ATOM     14  C   UNK d   0      32.739   0.289  41.213  0.00  0.00    -0.022 A 
ATOM     15  C   UNK d   0      32.186  -1.668  40.340  0.00  0.00     0.042 A 
ATOM     16  H   UNK d   0      32.052  -2.813  42.214  0.00  0.00     0.166 HD
ATOM     17  C   UNK d   0      31.869  -2.566  39.301  0.00  0.00     0.062 C 
ATOM     18  C   UNK d   0      32.482  -0.331  40.015  0.00  0.00    -0.013 A 
ATOM     19  C   UNK d   0      32.309  -3.850  39.106  0.00  0.00     0.067 A 
ATOM     20  N   UNK d   0      32.968  -4.423  40.117  0.00  0.00    -0.248 NA
ATOM     21  C   UNK d   0      32.261  -4.818  38.023  0.00  0.00    -0.011 A 
ATOM     22  C   UNK d   0      33.356  -5.695  39.772  0.00  0.00     0.066 A 
ATOM     23  C   UNK d   0      34.022  -6.422  40.748  0.00  0.00     0.062 C 
ATOM     24  C   UNK d   0      32.880  -5.893  38.417  0.00  0.00    -0.020 A 
ATOM     25  C   UNK d   0      34.268  -6.051  42.079  0.00  0.00     0.041 A 
ATOM     26  N   UNK d   0      34.622  -4.880  42.623  0.00  0.00    -0.355 N 
ATOM     27  C   UNK d   0      34.122  -7.026  43.090  0.00  0.00    -0.022 A 
ATOM     28  C   UNK d   0      34.702  -5.075  43.949  0.00  0.00     0.042 A 
ATOM     29  H   UNK d   0      34.838  -3.931  42.075  0.00  0.00     0.166 HD
ATOM     30  C   UNK d   0      35.025  -4.194  44.993  0.00  0.00     0.062 C 
ATOM     31  C   UNK d   0      34.394  -6.417  44.276  0.00  0.00    -0.013 A 
ATOM     32  C   UNK d   0      34.647  -2.869  45.142  0.00  0.00     0.066 A 
BRANCH   8  33
ATOM     33  C   UNK d   0      34.154   0.514  46.495  0.00  0.00     0.151 C 
BRANCH  33  34
ATOM     34  C   UNK d   0      33.567   1.592  45.679  0.00  0.00     0.143 C 
ATOM     35  O   UNK d   0      34.279   2.299  44.952  0.00  0.00    -0.650 OA
BRANCH  34  36
ATOM     36  O   UNK d   0      32.211   1.815  45.729  0.00  0.00    -0.776 OA
ATOM     37  H   UNK d   0      31.768   2.549  45.160  0.00  0.00     0.167 HD
ENDBRANCH  34  36
ENDBRANCH  33  34
ENDBRANCH   8  33
BRANCH  31  38
ATOM     38  C   UNK d   0      34.352  -7.064  45.641  0.00  0.00     0.151 C 
BRANCH  38  39
ATOM     39  C   UNK d   0      35.631  -7.612  46.042  0.00  0.00     0.143 C 
ATOM     40  O   UNK d   0      36.051  -8.702  45.616  0.00  0.00    -0.650 OA
BRANCH  39  41
ATOM     41  O   UNK d   0      36.430  -6.902  46.937  0.00  0.00    -0.776 OA
ATOM     42  H   UNK d   0      37.127  -7.440  47.462  0.00  0.00     0.167 HD
ENDBRANCH  39  41
ENDBRANCH  38  39
ENDBRANCH  31  38
BRANCH  27  43
ATOM     43  C   UNK d   0      33.745  -8.481  42.970  0.00  0.00     0.052 C 
BRANCH  43  44
ATOM     44  C   UNK d   0      32.358  -8.773  43.444  0.00  0.00     0.115 C 
BRANCH  44  45
ATOM     45  C   UNK d   0      32.319 -10.220  43.778  0.00  0.00     0.139 C 
ATOM     46  O   UNK d   0      33.018 -10.625  44.739  0.00  0.00    -0.650 OA
BRANCH  45  47
ATOM     47  O   UNK d   0      31.548 -11.127  43.083  0.00  0.00    -0.776 OA
ATOM     48  H   UNK d   0      31.530 -11.173  42.051  0.00  0.00     0.167 HD
ENDBRANCH  45  47
ENDBRANCH  44  45
ENDBRANCH  43  44
ENDBRANCH  27  43
BRANCH  24  49
ATOM     49  C   UNK d   0      33.035  -7.138  37.645  0.00  0.00     0.052 C 
BRANCH  49  50
ATOM     50  C   UNK d   0      34.496  -7.464  37.464  0.00  0.00     0.115 C 
BRANCH  50  51
ATOM     51  C   UNK d   0      35.269  -6.587  36.595  0.00  0.00     0.139 C 
ATOM     52  O   UNK d   0      36.511  -6.451  36.703  0.00  0.00    -0.650 OA
BRANCH  51  53
ATOM     53  O   UNK d   0      34.626  -5.862  35.603  0.00  0.00    -0.776 OA
ATOM     54  H   UNK d   0      34.512  -6.288  34.701  0.00  0.00     0.167 HD
ENDBRANCH  51  53
ENDBRANCH  50  51
ENDBRANCH  49  50
ENDBRANCH  24  49
BRANCH  21  55
ATOM     55  C   UNK d   0      31.599  -4.568  36.709  0.00  0.00     0.151 C 
BRANCH  55  56
ATOM     56  C   UNK d   0      30.140  -4.733  36.786  0.00  0.00     0.143 C 
ATOM     57  O   UNK d   0      29.586  -5.850  36.786  0.00  0.00    -0.650 OA
BRANCH  56  58
ATOM     58  O   UNK d   0      29.359  -3.581  36.863  0.00  0.00    -0.776 OA
ATOM     59  H   UNK d   0      28.406  -3.724  37.241  0.00  0.00     0.167 HD
ENDBRANCH  56  58
ENDBRANCH  55  56
ENDBRANCH  21  55
BRANCH  18  60
ATOM     60  C   UNK d   0      32.529   0.343  38.666  0.00  0.00     0.151 C 
BRANCH  60  61
ATOM     61  C   UNK d   0      31.128   0.532  38.260  0.00  0.00     0.143 C 
ATOM     62  O   UNK d   0      30.481  -0.164  37.478  0.00  0.00    -0.650 OA
BRANCH  61  63
ATOM     63  O   UNK d   0      30.475   1.642  38.849  0.00  0.00    -0.776 OA
ATOM     64  H   UNK d   0      29.728   1.515  39.508  0.00  0.00     0.167 HD
ENDBRANCH  61  63
ENDBRANCH  60  61
ENDBRANCH  18  60
BRANCH  14  65
ATOM     65  C   UNK d   0      32.999   1.766  41.304  0.00  0.00     0.052 C 
BRANCH  65  66
ATOM     66  C   UNK d   0      31.772   2.556  41.590  0.00  0.00     0.115 C 
BRANCH  66  67
ATOM     67  C   UNK d   0      31.579   3.125  42.894  0.00  0.00     0.139 C 
ATOM     68  O   UNK d   0      30.604   2.695  43.613  0.00  0.00    -0.650 OA
BRANCH  67  69
ATOM     69  O   UNK d   0      32.335   4.122  43.510  0.00  0.00    -0.776 OA
ATOM     70  H   UNK d   0      31.891   5.050  43.568  0.00  0.00     0.167 HD
ENDBRANCH  67  69
ENDBRANCH  66  67
ENDBRANCH  65  66
ENDBRANCH  14  65
ENDBRANCH   6   7
ENDBRANCH   5   6
ENDBRANCH   2   5
TORSDOF 28
ENDMDL
MODEL 2
REMARK VINA RESULT:      -9.6      1.159      1.581
REMARK  28 active torsions:
REMARK  status: ('A' for Active; 'I' for Inactive)
REMARK    1  A    between atoms: C_2  and  O_3 
REMARK    2  A    between atoms: C_2  and  C_4 
REMARK    3  A    between atoms: C_4  and  C_5 
REMARK    4  A    between atoms: C_5  and  C_6 
REMARK    5  A    between atoms: C_7  and  C_8 
REMARK    6  A    between atoms: C_8  and  C_9 
REMARK    7  A    between atoms: C_9  and  O_11 
REMARK    8  A    between atoms: C_28  and  C_29 
REMARK    9  A    between atoms: C_29  and  C_30 
REMARK   10  A    between atoms: C_30  and  O_32 
REMARK   11  A    between atoms: C_33  and  C_34 
REMARK   12  A    between atoms: C_34  and  C_35 
REMARK   13  A    between atoms: C_35  and  C_36 
REMARK   14  A    between atoms: C_36  and  O_38 
REMARK   15  A    between atoms: C_39  and  C_40 
REMARK   16  A    between atoms: C_40  and  C_41 
REMARK   17  A    between atoms: C_41  and  C_42 
REMARK   18  A    between atoms: C_42  and  O_44 
REMARK   19  A    between atoms: C_45  and  C_46 
REMARK   20  A    between atoms: C_46  and  C_47 
REMARK   21  A    between atoms: C_47  and  O_49 
REMARK   22  A    between atoms: C_50  and  C_51 
REMARK   23  A    between atoms: C_51  and  C_52 
REMARK   24  A    between atoms: C_52  and  O_54 
REMARK   25  A    between atoms: C_55  and  C_56 
REMARK   26  A    between atoms: C_56  and  C_57 
REMARK   27  A    between atoms: C_57  and  C_58 
REMARK   28  A    between atoms: C_58  and  O_60 
ROOT
ATOM      1  O   UNK d   0      35.307  -5.724  48.589  0.00  0.00    -0.650 OA
ATOM      2  C   UNK d   0      35.817  -4.670  48.147  0.00  0.00     0.139 C 
ENDROOT
BRANCH   2   3
ATOM      3  O   UNK d   0      37.132  -4.674  47.749  0.00  0.00    -0.776 OA
ATOM      4  H   UNK d   0      37.823  -4.075  48.204  0.00  0.00     0.167 HD
ENDBRANCH   2   3
BRANCH   2   5
ATOM      5  C   UNK d   0      35.003  -3.425  48.057  0.00  0.00     0.115 C 
BRANCH   5   6
ATOM      6  C   UNK d   0      35.671  -2.435  47.142  0.00  0.00     0.052 C 
BRANCH   6   7
ATOM      7  C   UNK d   0      34.886  -2.192  45.876  0.00  0.00    -0.020 A 
ATOM      8  C   UNK d   0      34.271  -1.095  45.516  0.00  0.00    -0.011 A 
ATOM      9  C   UNK d   0      33.647  -1.337  44.226  0.00  0.00     0.067 A 
ATOM     10  C   UNK d   0      32.883  -0.591  43.314  0.00  0.00     0.062 C 
ATOM     11  N   UNK d   0      33.928  -2.610  43.877  0.00  0.00    -0.248 NA
ATOM     12  C   UNK d   0      32.602  -0.912  41.982  0.00  0.00     0.041 A 
ATOM     13  N   UNK d   0      32.251  -2.078  41.407  0.00  0.00    -0.355 N 
ATOM     14  C   UNK d   0      32.736   0.084  40.999  0.00  0.00    -0.022 A 
ATOM     15  C   UNK d   0      32.168  -1.849  40.082  0.00  0.00     0.042 A 
ATOM     16  H   UNK d   0      32.048  -3.039  41.928  0.00  0.00     0.166 HD
ATOM     17  C   UNK d   0      31.837  -2.718  39.024  0.00  0.00     0.062 C 
ATOM     18  C   UNK d   0      32.465  -0.504  39.788  0.00  0.00    -0.013 A 
ATOM     19  C   UNK d   0      32.270  -3.999  38.793  0.00  0.00     0.067 A 
ATOM     20  N   UNK d   0      32.937  -4.599  39.782  0.00  0.00    -0.248 NA
ATOM     21  C   UNK d   0      32.209  -4.939  37.686  0.00  0.00    -0.011 A 
ATOM     22  C   UNK d   0      33.318  -5.863  39.401  0.00  0.00     0.066 A 
ATOM     23  C   UNK d   0      33.990  -6.617  40.352  0.00  0.00     0.062 C 
ATOM     24  C   UNK d   0      32.827  -6.026  38.047  0.00  0.00    -0.020 A 
ATOM     25  C   UNK d   0      34.251  -6.280  41.689  0.00  0.00     0.041 A 
ATOM     26  N   UNK d   0      34.614  -5.125  42.259  0.00  0.00    -0.355 N 
ATOM     27  C   UNK d   0      34.111  -7.280  42.676  0.00  0.00    -0.022 A 
ATOM     28  C   UNK d   0      34.707  -5.354  43.579  0.00  0.00     0.042 A 
ATOM     29  H   UNK d   0      34.829  -4.163  41.733  0.00  0.00     0.166 HD
ATOM     30  C   UNK d   0      35.043  -4.501  44.642  0.00  0.00     0.062 C 
ATOM     31  C   UNK d   0      34.397  -6.702  43.875  0.00  0.00    -0.013 A 
ATOM     32  C   UNK d   0      34.672  -3.179  44.827  0.00  0.00     0.066 A 
BRANCH   8  33
ATOM     33  C   UNK d   0      34.204   0.171  46.271  0.00  0.00     0.151 C 
BRANCH  33  34
ATOM     34  C   UNK d   0      33.562   1.256  45.508  0.00  0.00     0.143 C 
ATOM     35  O   UNK d   0      34.228   1.996  44.770  0.00  0.00    -0.650 OA
BRANCH  34  36
ATOM     36  O   UNK d   0      32.204   1.449  45.621  0.00  0.00    -0.776 OA
ATOM     37  H   UNK d   0      31.602   1.505  44.789  0.00  0.00     0.167 HD
ENDBRANCH  34  36
ENDBRANCH  33  34
ENDBRANCH   8  33
BRANCH  31  38
ATOM     38  C   UNK d   0      34.366  -7.384  45.223  0.00  0.00     0.151 C 
BRANCH  38  39
ATOM     39  C   UNK d   0      35.621  -8.023  45.558  0.00  0.00     0.143 C 
ATOM     40  O   UNK d   0      36.022  -9.047  44.978  0.00  0.00    -0.650 OA
BRANCH  39  41
ATOM     41  O   UNK d   0      36.419  -7.481  46.566  0.00  0.00    -0.776 OA
ATOM     42  H   UNK d   0      37.381  -7.236  46.310  0.00  0.00     0.167 HD
ENDBRANCH  39  41
ENDBRANCH  38  39
ENDBRANCH  31  38
BRANCH  27  43
ATOM     43  C   UNK d   0      33.727  -8.731  42.524  0.00  0.00     0.052 C 
BRANCH  43  44
ATOM     44  C   UNK d   0      32.405  -9.060  43.137  0.00  0.00     0.115 C 
BRANCH  44  45
ATOM     45  C   UNK d   0      32.438 -10.508  43.466  0.00  0.00     0.139 C 
ATOM     46  O   UNK d   0      33.334 -10.918  44.245  0.00  0.00    -0.650 OA
BRANCH  45  47
ATOM     47  O   UNK d   0      31.529 -11.411  42.959  0.00  0.00    -0.776 OA
ATOM     48  H   UNK d   0      31.663 -11.893  42.055  0.00  0.00     0.167 HD
ENDBRANCH  45  47
ENDBRANCH  44  45
ENDBRANCH  43  44
ENDBRANCH  27  43
BRANCH  24  49
ATOM     49  C   UNK d   0      32.971  -7.251  37.242  0.00  0.00     0.052 C 
BRANCH  49  50
ATOM     50  C   UNK d   0      31.654  -7.979  37.155  0.00  0.00     0.115 C 
BRANCH  50  51
ATOM     51  C   UNK d   0      30.956  -7.941  35.877  0.00  0.00     0.139 C 
ATOM     52  O   UNK d   0      31.558  -7.968  34.777  0.00  0.00    -0.650 OA
BRANCH  51  53
ATOM     53  O   UNK d   0      29.572  -7.870  35.852  0.00  0.00    -0.776 OA
ATOM     54  H   UNK d   0      29.116  -7.791  34.960  0.00  0.00     0.167 HD
ENDBRANCH  51  53
ENDBRANCH  50  51
ENDBRANCH  49  50
ENDBRANCH  24  49
BRANCH  21  55
ATOM     55  C   UNK d   0      31.535  -4.653  36.385  0.00  0.00     0.151 C 
BRANCH  55  56
ATOM     56  C   UNK d   0      30.113  -4.319  36.562  0.00  0.00     0.143 C 
ATOM     57  O   UNK d   0      29.298  -5.097  37.095  0.00  0.00    -0.650 OA
BRANCH  56  58
ATOM     58  O   UNK d   0      29.678  -3.075  36.108  0.00  0.00    -0.776 OA
ATOM     59  H   UNK d   0      29.496  -3.022  35.089  0.00  0.00     0.167 HD
ENDBRANCH  56  58
ENDBRANCH  55  56
ENDBRANCH  21  55
BRANCH  18  60
ATOM     60  C   UNK d   0      32.501   0.203  38.456  0.00  0.00     0.151 C 
BRANCH  60  61
ATOM     61  C   UNK d   0      31.097   0.391  38.061  0.00  0.00     0.143 C 
ATOM     62  O   UNK d   0      30.430  -0.336  37.323  0.00  0.00    -0.650 OA
BRANCH  61  63
ATOM     63  O   UNK d   0      30.467   1.537  38.601  0.00  0.00    -0.776 OA
ATOM     64  H   UNK d   0      30.983   2.203  39.148  0.00  0.00     0.167 HD
ENDBRANCH  61  63
ENDBRANCH  60  61
ENDBRANCH  18  60
BRANCH  14  65
ATOM     65  C   UNK d   0      33.003   1.558  41.125  0.00  0.00     0.052 C 
BRANCH  65  66
ATOM     66  C   UNK d   0      31.768   2.354  41.355  0.00  0.00     0.115 C 
BRANCH  66  67
ATOM     67  C   UNK d   0      31.296   2.566  42.694  0.00  0.00     0.139 C 
ATOM     68  O   UNK d   0      31.704   3.606  43.331  0.00  0.00    -0.650 OA
BRANCH  67  69
ATOM     69  O   UNK d   0      30.422   1.764  43.428  0.00  0.00    -0.776 OA
ATOM     70  H   UNK d   0      30.812   0.875  43.772  0.00  0.00     0.167 HD
ENDBRANCH  67  69
ENDBRANCH  66  67
ENDBRANCH  65  66
ENDBRANCH  14  65
ENDBRANCH   6   7
ENDBRANCH   5   6
ENDBRANCH   2   5
TORSDOF 28
ENDMDL
MODEL 3
REMARK VINA RESULT:      -9.6     28.919     32.472
REMARK  28 active torsions:
REMARK  status: ('A' for Active; 'I' for Inactive)
REMARK    1  A    between atoms: C_2  and  O_3 
REMARK    2  A    between atoms: C_2  and  C_4 
REMARK    3  A    between atoms: C_4  and  C_5 
REMARK    4  A    between atoms: C_5  and  C_6 
REMARK    5  A    between atoms: C_7  and  C_8 
REMARK    6  A    between atoms: C_8  and  C_9 
REMARK    7  A    between atoms: C_9  and  O_11 
REMARK    8  A    between atoms: C_28  and  C_29 
REMARK    9  A    between atoms: C_29  and  C_30 
REMARK   10  A    between atoms: C_30  and  O_32 
REMARK   11  A    between atoms: C_33  and  C_34 
REMARK   12  A    between atoms: C_34  and  C_35 
REMARK   13  A    between atoms: C_35  and  C_36 
REMARK   14  A    between atoms: C_36  and  O_38 
REMARK   15  A    between atoms: C_39  and  C_40 
REMARK   16  A    between atoms: C_40  and  C_41 
REMARK   17  A    between atoms: C_41  and  C_42 
REMARK   18  A    between atoms: C_42  and  O_44 
REMARK   19  A    between atoms: C_45  and  C_46 
REMARK   20  A    between atoms: C_46  and  C_47 
REMARK   21  A    between atoms: C_47  and  O_49 
REMARK   22  A    between atoms: C_50  and  C_51 
REMARK   23  A    between atoms: C_51  and  C_52 
REMARK   24  A    between atoms: C_52  and  O_54 
REMARK   25  A    between atoms: C_55  and  C_56 
REMARK   26  A    between atoms: C_56  and  C_57 
REMARK   27  A    between atoms: C_57  and  C_58 
REMARK   28  A    between atoms: C_58  and  O_60 
ROOT
ATOM      1  O   UNK d   0       6.794   4.553  51.110  0.00  0.00    -0.650 OA
ATOM      2  C   UNK d   0       5.550   4.423  51.075  0.00  0.00     0.139 C 
ENDROOT
BRANCH   2   3
ATOM      3  O   UNK d   0       4.834   4.478  52.247  0.00  0.00    -0.776 OA
ATOM      4  H   UNK d   0       5.262   4.223  53.139  0.00  0.00     0.167 HD
ENDBRANCH   2   3
BRANCH   2   5
ATOM      5  C   UNK d   0       4.856   4.210  49.773  0.00  0.00     0.115 C 
BRANCH   5   6
ATOM      6  C   UNK d   0       5.847   3.798  48.720  0.00  0.00     0.052 C 
BRANCH   6   7
ATOM      7  C   UNK d   0       5.325   4.002  47.318  0.00  0.00    -0.020 A 
ATOM      8  C   UNK d   0       5.139   3.094  46.395  0.00  0.00    -0.011 A 
ATOM      9  C   UNK d   0       4.631   3.762  45.208  0.00  0.00     0.067 A 
ATOM     10  C   UNK d   0       4.222   3.373  43.923  0.00  0.00     0.062 C 
ATOM     11  N   UNK d   0       4.544   5.078  45.496  0.00  0.00    -0.248 NA
ATOM     12  C   UNK d   0       3.494   4.131  43.000  0.00  0.00     0.041 A 
ATOM     13  N   UNK d   0       3.598   5.423  42.635  0.00  0.00    -0.355 N 
ATOM     14  C   UNK d   0       2.412   3.531  42.330  0.00  0.00    -0.022 A 
ATOM     15  C   UNK d   0       2.606   5.661  41.757  0.00  0.00     0.042 A 
ATOM     16  H   UNK d   0       4.370   6.147  42.977  0.00  0.00     0.166 HD
ATOM     17  C   UNK d   0       2.259   6.840  41.067  0.00  0.00     0.062 C 
ATOM     18  C   UNK d   0       1.841   4.498  41.540  0.00  0.00    -0.013 A 
ATOM     19  C   UNK d   0       2.169   8.122  41.544  0.00  0.00     0.067 A 
ATOM     20  N   UNK d   0       2.655   8.349  42.767  0.00  0.00    -0.248 NA
ATOM     21  C   UNK d   0       1.640   9.384  41.053  0.00  0.00    -0.011 A 
ATOM     22  C   UNK d   0       2.482   9.667  43.112  0.00  0.00     0.066 A 
ATOM     23  C   UNK d   0       2.978  10.050  44.350  0.00  0.00     0.062 C 
ATOM     24  C   UNK d   0       1.823  10.283  41.978  0.00  0.00    -0.020 A 
ATOM     25  C   UNK d   0       3.718   9.276  45.257  0.00  0.00     0.041 A 
ATOM     26  N   UNK d   0       3.605   7.996  45.631  0.00  0.00    -0.355 N 
ATOM     27  C   UNK d   0       4.806   9.878  45.926  0.00  0.00    -0.022 A 
ATOM     28  C   UNK d   0       4.588   7.759  46.513  0.00  0.00     0.042 A 
ATOM     29  H   UNK d   0       2.822   7.272  45.295  0.00  0.00     0.166 HD
ATOM     30  C   UNK d   0       4.939   6.594  47.214  0.00  0.00     0.062 C 
ATOM     31  C   UNK d   0       5.363   8.925  46.722  0.00  0.00    -0.013 A 
ATOM     32  C   UNK d   0       4.946   5.288  46.750  0.00  0.00     0.066 A 
BRANCH   8  33
ATOM     33  C   UNK d   0       5.397   1.647  46.512  0.00  0.00     0.151 C 
BRANCH  33  34
ATOM     34  C   UNK d   0       4.184   0.833  46.313  0.00  0.00     0.143 C 
ATOM     35  O   UNK d   0       3.217   0.932  47.083  0.00  0.00    -0.650 OA
BRANCH  34  36
ATOM     36  O   UNK d   0       4.127  -0.048  45.258  0.00  0.00    -0.776 OA
ATOM     37  H   UNK d   0       4.156   0.282  44.284  0.00  0.00     0.167 HD
ENDBRANCH  34  36
ENDBRANCH  33  34
ENDBRANCH   8  33
BRANCH  31  38
ATOM     38  C   UNK d   0       6.566   9.103  47.619  0.00  0.00     0.151 C 
BRANCH  38  39
ATOM     39  C   UNK d   0       7.810   8.751  46.967  0.00  0.00     0.143 C 
ATOM     40  O   UNK d   0       8.695   8.090  47.536  0.00  0.00    -0.650 OA
BRANCH  39  41
ATOM     41  O   UNK d   0       8.035   9.159  45.652  0.00  0.00    -0.776 OA
ATOM     42  H   UNK d   0       7.216   9.459  45.115  0.00  0.00     0.167 HD
ENDBRANCH  39  41
ENDBRANCH  38  39
ENDBRANCH  31  38
BRANCH  27  43
ATOM     43  C   UNK d   0       5.322  11.293  45.838  0.00  0.00     0.052 C 
BRANCH  43  44
ATOM     44  C   UNK d   0       4.315  12.315  46.256  0.00  0.00     0.115 C 
BRANCH  44  45
ATOM     45  C   UNK d   0       4.709  13.590  45.603  0.00  0.00     0.139 C 
ATOM     46  O   UNK d   0       5.535  14.328  46.196  0.00  0.00    -0.650 OA
BRANCH  45  47
ATOM     47  O   UNK d   0       4.213  13.988  44.380  0.00  0.00    -0.776 OA
ATOM     48  H   UNK d   0       3.625  14.829  44.261  0.00  0.00     0.167 HD
ENDBRANCH  45  47
ENDBRANCH  44  45
ENDBRANCH  43  44
ENDBRANCH  27  43
BRANCH  24  49
ATOM     49  C   UNK d   0       1.470  11.710  41.883  0.00  0.00     0.052 C 
BRANCH  49  50
ATOM     50  C   UNK d   0       2.442  12.432  40.986  0.00  0.00     0.115 C 
BRANCH  50  51
ATOM     51  C   UNK d   0       3.852  12.096  41.127  0.00  0.00     0.139 C 
ATOM     52  O   UNK d   0       4.455  12.151  42.225  0.00  0.00    -0.650 OA
BRANCH  51  53
ATOM     53  O   UNK d   0       4.577  11.697  40.014  0.00  0.00    -0.776 OA
ATOM     54  H   UNK d   0       5.481  12.110  39.862  0.00  0.00     0.167 HD
ENDBRANCH  51  53
ENDBRANCH  50  51
ENDBRANCH  49  50
ENDBRANCH  24  49
BRANCH  21  55
ATOM     55  C   UNK d   0       1.012   9.561  39.711  0.00  0.00     0.151 C 
BRANCH  55  56
ATOM     56  C   UNK d   0       2.007   9.528  38.628  0.00  0.00     0.143 C 
ATOM     57  O   UNK d   0       2.657  10.533  38.277  0.00  0.00    -0.650 OA
BRANCH  56  58
ATOM     58  O   UNK d   0       2.219   8.313  37.979  0.00  0.00    -0.776 OA
ATOM     59  H   UNK d   0       1.720   7.505  38.391  0.00  0.00     0.167 HD
ENDBRANCH  56  58
ENDBRANCH  55  56
ENDBRANCH  21  55
BRANCH  18  60
ATOM     60  C   UNK d   0       0.639   4.290  40.652  0.00  0.00     0.151 C 
BRANCH  60  61
ATOM     61  C   UNK d   0      -0.537   4.561  41.492  0.00  0.00     0.143 C 
ATOM     62  O   UNK d   0      -0.921   5.657  41.900  0.00  0.00    -0.650 OA
BRANCH  61  63
ATOM     63  O   UNK d   0      -1.291   3.420  41.858  0.00  0.00    -0.776 OA
ATOM     64  H   UNK d   0      -1.566   3.265  42.812  0.00  0.00     0.167 HD
ENDBRANCH  61  63
ENDBRANCH  60  61
ENDBRANCH  18  60
BRANCH  14  65
ATOM     65  C   UNK d   0       1.943   2.104  42.304  0.00  0.00     0.052 C 
BRANCH  65  66
ATOM     66  C   UNK d   0       2.464   1.342  41.138  0.00  0.00     0.115 C 
BRANCH  66  67
ATOM     67  C   UNK d   0       3.154   0.100  41.350  0.00  0.00     0.139 C 
ATOM     68  O   UNK d   0       3.116  -0.789  40.422  0.00  0.00    -0.650 OA
BRANCH  67  69
ATOM     69  O   UNK d   0       3.889  -0.287  42.469  0.00  0.00    -0.776 OA
ATOM     70  H   UNK d   0       3.348  -0.428  43.334  0.00  0.00     0.167 HD
ENDBRANCH  67  69
ENDBRANCH  66  67
ENDBRANCH  65  66
ENDBRANCH  14  65
ENDBRANCH   6   7
ENDBRANCH   5   6
ENDBRANCH   2   5
TORSDOF 28
ENDMDL
MODEL 4
REMARK VINA RESULT:      -9.6     28.749     32.167
REMARK  28 active torsions:
REMARK  status: ('A' for Active; 'I' for Inactive)
REMARK    1  A    between atoms: C_2  and  O_3 
REMARK    2  A    between atoms: C_2  and  C_4 
REMARK    3  A    between atoms: C_4  and  C_5 
REMARK    4  A    between atoms: C_5  and  C_6 
REMARK    5  A    between atoms: C_7  and  C_8 
REMARK    6  A    between atoms: C_8  and  C_9 
REMARK    7  A    between atoms: C_9  and  O_11 
REMARK    8  A    between atoms: C_28  and  C_29 
REMARK    9  A    between atoms: C_29  and  C_30 
REMARK   10  A    between atoms: C_30  and  O_32 
REMARK   11  A    between atoms: C_33  and  C_34 
REMARK   12  A    between atoms: C_34  and  C_35 
REMARK   13  A    between atoms: C_35  and  C_36 
REMARK   14  A    between atoms: C_36  and  O_38 
REMARK   15  A    between atoms: C_39  and  C_40 
REMARK   16  A    between atoms: C_40  and  C_41 
REMARK   17  A    between atoms: C_41  and  C_42 
REMARK   18  A    between atoms: C_42  and  O_44 
REMARK   19  A    between atoms: C_45  and  C_46 
REMARK   20  A    between atoms: C_46  and  C_47 
REMARK   21  A    between atoms: C_47  and  O_49 
REMARK   22  A    between atoms: C_50  and  C_51 
REMARK   23  A    between atoms: C_51  and  C_52 
REMARK   24  A    between atoms: C_52  and  O_54 
REMARK   25  A    between atoms: C_55  and  C_56 
REMARK   26  A    between atoms: C_56  and  C_57 
REMARK   27  A    between atoms: C_57  and  C_58 
REMARK   28  A    between atoms: C_58  and  O_60 
ROOT
ATOM      1  O   UNK d   0       6.190   4.895  52.063  0.00  0.00    -0.650 OA
ATOM      2  C   UNK d   0       6.432   4.453  50.917  0.00  0.00     0.139 C 
ENDROOT
BRANCH   2   3
ATOM      3  O   UNK d   0       7.737   4.288  50.521  0.00  0.00    -0.776 OA
ATOM      4  H   UNK d   0       8.480   4.887  50.887  0.00  0.00     0.167 HD
ENDBRANCH   2   3
BRANCH   2   5
ATOM      5  C   UNK d   0       5.312   4.112  49.995  0.00  0.00     0.115 C 
BRANCH   5   6
ATOM      6  C   UNK d   0       5.774   3.116  48.966  0.00  0.00     0.052 C 
BRANCH   6   7
ATOM      7  C   UNK d   0       5.336   3.481  47.567  0.00  0.00    -0.020 A 
ATOM      8  C   UNK d   0       5.175   2.679  46.547  0.00  0.00    -0.011 A 
ATOM      9  C   UNK d   0       4.754   3.482  45.411  0.00  0.00     0.067 A 
ATOM     10  C   UNK d   0       4.406   3.240  44.073  0.00  0.00     0.062 C 
ATOM     11  N   UNK d   0       4.690   4.764  45.829  0.00  0.00    -0.248 NA
ATOM     12  C   UNK d   0       3.753   4.114  43.196  0.00  0.00     0.041 A 
ATOM     13  N   UNK d   0       3.916   5.432  42.973  0.00  0.00    -0.355 N 
ATOM     14  C   UNK d   0       2.693   3.624  42.412  0.00  0.00    -0.022 A 
ATOM     15  C   UNK d   0       2.981   5.792  42.074  0.00  0.00     0.042 A 
ATOM     16  H   UNK d   0       4.689   6.090  43.428  0.00  0.00     0.166 HD
ATOM     17  C   UNK d   0       2.709   7.047  41.493  0.00  0.00     0.062 C 
ATOM     18  C   UNK d   0       2.195   4.686  41.698  0.00  0.00    -0.013 A 
ATOM     19  C   UNK d   0       2.630   8.277  42.095  0.00  0.00     0.067 A 
ATOM     20  N   UNK d   0       3.054   8.360  43.358  0.00  0.00    -0.248 NA
ATOM     21  C   UNK d   0       2.168   9.600  41.711  0.00  0.00    -0.011 A 
ATOM     22  C   UNK d   0       2.901   9.641  43.829  0.00  0.00     0.066 A 
ATOM     23  C   UNK d   0       3.339   9.879  45.124  0.00  0.00     0.062 C 
ATOM     24  C   UNK d   0       2.325  10.393  42.731  0.00  0.00    -0.020 A 
ATOM     25  C   UNK d   0       4.004   8.991  45.983  0.00  0.00     0.041 A 
ATOM     26  N   UNK d   0       3.832   7.684  46.216  0.00  0.00    -0.355 N 
ATOM     27  C   UNK d   0       5.071   9.482  46.767  0.00  0.00    -0.022 A 
ATOM     28  C   UNK d   0       4.758   7.324  47.119  0.00  0.00     0.042 A 
ATOM     29  H   UNK d   0       3.048   7.027  45.766  0.00  0.00     0.166 HD
ATOM     30  C   UNK d   0       5.034   6.082  47.712  0.00  0.00     0.062 C 
ATOM     31  C   UNK d   0       5.554   8.434  47.488  0.00  0.00    -0.013 A 
ATOM     32  C   UNK d   0       5.028   4.831  47.117  0.00  0.00     0.066 A 
BRANCH   8  33
ATOM     33  C   UNK d   0       5.382   1.219  46.527  0.00  0.00     0.151 C 
BRANCH  33  34
ATOM     34  C   UNK d   0       4.132   0.467  46.319  0.00  0.00     0.143 C 
ATOM     35  O   UNK d   0       3.114   0.732  46.975  0.00  0.00    -0.650 OA
BRANCH  34  36
ATOM     36  O   UNK d   0       4.097  -0.542  45.386  0.00  0.00    -0.776 OA
ATOM     37  H   UNK d   0       4.048  -1.531  45.669  0.00  0.00     0.167 HD
ENDBRANCH  34  36
ENDBRANCH  33  34
ENDBRANCH   8  33
BRANCH  31  38
ATOM     38  C   UNK d   0       6.710   8.478  48.460  0.00  0.00     0.151 C 
BRANCH  38  39
ATOM     39  C   UNK d   0       7.868   7.748  47.989  0.00  0.00     0.143 C 
ATOM     40  O   UNK d   0       8.777   8.290  47.336  0.00  0.00    -0.650 OA
BRANCH  39  41
ATOM     41  O   UNK d   0       7.981   6.386  48.270  0.00  0.00    -0.776 OA
ATOM     42  H   UNK d   0       8.457   5.809  47.570  0.00  0.00     0.167 HD
ENDBRANCH  39  41
ENDBRANCH  38  39
ENDBRANCH  31  38
BRANCH  27  43
ATOM     43  C   UNK d   0       5.632  10.880  46.854  0.00  0.00     0.052 C 
BRANCH  43  44
ATOM     44  C   UNK d   0       6.990  11.010  46.244  0.00  0.00     0.115 C 
BRANCH  44  45
ATOM     45  C   UNK d   0       7.832  11.733  47.233  0.00  0.00     0.139 C 
ATOM     46  O   UNK d   0       7.546  12.928  47.492  0.00  0.00    -0.650 OA
BRANCH  45  47
ATOM     47  O   UNK d   0       8.900  11.146  47.876  0.00  0.00    -0.776 OA
ATOM     48  H   UNK d   0       8.788  10.421  48.603  0.00  0.00     0.167 HD
ENDBRANCH  45  47
ENDBRANCH  44  45
ENDBRANCH  43  44
ENDBRANCH  27  43
BRANCH  24  49
ATOM     49  C   UNK d   0       2.020  11.834  42.767  0.00  0.00     0.052 C 
BRANCH  49  50
ATOM     50  C   UNK d   0       3.263  12.624  43.088  0.00  0.00     0.115 C 
BRANCH  50  51
ATOM     51  C   UNK d   0       3.254  13.407  44.317  0.00  0.00     0.139 C 
ATOM     52  O   UNK d   0       4.160  14.225  44.604  0.00  0.00    -0.650 OA
BRANCH  51  53
ATOM     53  O   UNK d   0       2.214  13.254  45.220  0.00  0.00    -0.776 OA
ATOM     54  H   UNK d   0       1.378  12.792  44.909  0.00  0.00     0.167 HD
ENDBRANCH  51  53
ENDBRANCH  50  51
ENDBRANCH  49  50
ENDBRANCH  24  49
BRANCH  21  55
ATOM     55  C   UNK d   0       1.621   9.935  40.363  0.00  0.00     0.151 C 
BRANCH  55  56
ATOM     56  C   UNK d   0       2.675  10.365  39.431  0.00  0.00     0.143 C 
ATOM     57  O   UNK d   0       2.503  10.424  38.198  0.00  0.00    -0.650 OA
BRANCH  56  58
ATOM     58  O   UNK d   0       3.912  10.718  39.969  0.00  0.00    -0.776 OA
ATOM     59  H   UNK d   0       4.467  11.375  39.391  0.00  0.00     0.167 HD
ENDBRANCH  56  58
ENDBRANCH  55  56
ENDBRANCH  21  55
BRANCH  18  60
ATOM     60  C   UNK d   0       1.039   4.612  40.731  0.00  0.00     0.151 C 
BRANCH  60  61
ATOM     61  C   UNK d   0      -0.178   4.741  41.546  0.00  0.00     0.143 C 
ATOM     62  O   UNK d   0      -0.906   3.831  41.943  0.00  0.00    -0.650 OA
BRANCH  61  63
ATOM     63  O   UNK d   0      -0.529   6.067  41.899  0.00  0.00    -0.776 OA
ATOM     64  H   UNK d   0       0.112   6.828  41.758  0.00  0.00     0.167 HD
ENDBRANCH  61  63
ENDBRANCH  60  61
ENDBRANCH  18  60
BRANCH  14  65
ATOM     65  C   UNK d   0       2.184   2.224  42.214  0.00  0.00     0.052 C 
BRANCH  65  66
ATOM     66  C   UNK d   0       2.974   1.454  41.216  0.00  0.00     0.115 C 
BRANCH  66  67
ATOM     67  C   UNK d   0       2.307   0.831  40.108  0.00  0.00     0.139 C 
ATOM     68  O   UNK d   0       2.736  -0.309  39.695  0.00  0.00    -0.650 OA
BRANCH  67  69
ATOM     69  O   UNK d   0       1.214   1.314  39.389  0.00  0.00    -0.776 OA
ATOM     70  H   UNK d   0       1.358   1.425  38.375  0.00  0.00     0.167 HD
ENDBRANCH  67  69
ENDBRANCH  66  67
ENDBRANCH  65  66
ENDBRANCH  14  65
ENDBRANCH   6   7
ENDBRANCH   5   6
ENDBRANCH   2   5
TORSDOF 28
ENDMDL
MODEL 5
REMARK VINA RESULT:      -9.5     28.992     32.840
REMARK  28 active torsions:
REMARK  status: ('A' for Active; 'I' for Inactive)
REMARK    1  A    between atoms: C_2  and  O_3 
REMARK    2  A    between atoms: C_2  and  C_4 
REMARK    3  A    between atoms: C_4  and  C_5 
REMARK    4  A    between atoms: C_5  and  C_6 
REMARK    5  A    between atoms: C_7  and  C_8 
REMARK    6  A    between atoms: C_8  and  C_9 
REMARK    7  A    between atoms: C_9  and  O_11 
REMARK    8  A    between atoms: C_28  and  C_29 
REMARK    9  A    between atoms: C_29  and  C_30 
REMARK   10  A    between atoms: C_30  and  O_32 
REMARK   11  A    between atoms: C_33  and  C_34 
REMARK   12  A    between atoms: C_34  and  C_35 
REMARK   13  A    between atoms: C_35  and  C_36 
REMARK   14  A    between atoms: C_36  and  O_38 
REMARK   15  A    between atoms: C_39  and  C_40 
REMARK   16  A    between atoms: C_40  and  C_41 
REMARK   17  A    between atoms: C_41  and  C_42 
REMARK   18  A    between atoms: C_42  and  O_44 
REMARK   19  A    between atoms: C_45  and  C_46 
REMARK   20  A    between atoms: C_46  and  C_47 
REMARK   21  A    between atoms: C_47  and  O_49 
REMARK   22  A    between atoms: C_50  and  C_51 
REMARK   23  A    between atoms: C_51  and  C_52 
REMARK   24  A    between atoms: C_52  and  O_54 
REMARK   25  A    between atoms: C_55  and  C_56 
REMARK   26  A    between atoms: C_56  and  C_57 
REMARK   27  A    between atoms: C_57  and  C_58 
REMARK   28  A    between atoms: C_58  and  O_60 
ROOT
ATOM      1  O   UNK d   0       1.415   2.370  37.888  0.00  0.00    -0.650 OA
ATOM      2  C   UNK d   0       0.645   3.335  38.089  0.00  0.00     0.139 C 
ENDROOT
BRANCH   2   3
ATOM      3  O   UNK d   0      -0.579   3.110  38.671  0.00  0.00    -0.776 OA
ATOM      4  H   UNK d   0      -0.822   3.534  39.569  0.00  0.00     0.167 HD
ENDBRANCH   2   3
BRANCH   2   5
ATOM      5  C   UNK d   0       1.055   4.713  37.697  0.00  0.00     0.115 C 
BRANCH   5   6
ATOM      6  C   UNK d   0       0.241   5.730  38.451  0.00  0.00     0.052 C 
BRANCH   6   7
ATOM      7  C   UNK d   0       1.099   6.751  39.160  0.00  0.00    -0.020 A 
ATOM      8  C   UNK d   0       1.309   7.995  38.813  0.00  0.00    -0.011 A 
ATOM      9  C   UNK d   0       2.208   8.583  39.792  0.00  0.00     0.067 A 
ATOM     10  C   UNK d   0       2.789   9.843  40.005  0.00  0.00     0.062 C 
ATOM     11  N   UNK d   0       2.499   7.625  40.697  0.00  0.00    -0.248 NA
ATOM     12  C   UNK d   0       3.415  10.302  41.169  0.00  0.00     0.041 A 
ATOM     13  N   UNK d   0       4.281   9.700  42.006  0.00  0.00    -0.355 N 
ATOM     14  C   UNK d   0       3.100  11.586  41.650  0.00  0.00    -0.022 A 
ATOM     15  C   UNK d   0       4.518  10.566  43.010  0.00  0.00     0.042 A 
ATOM     16  H   UNK d   0       4.731   8.691  41.880  0.00  0.00     0.166 HD
ATOM     17  C   UNK d   0       5.344  10.445  44.145  0.00  0.00     0.062 C 
ATOM     18  C   UNK d   0       3.795  11.760  42.821  0.00  0.00    -0.013 A 
ATOM     19  C   UNK d   0       5.478   9.384  45.004  0.00  0.00     0.067 A 
ATOM     20  N   UNK d   0       4.915   8.231  44.634  0.00  0.00    -0.248 NA
ATOM     21  C   UNK d   0       6.096   9.162  46.301  0.00  0.00    -0.011 A 
ATOM     22  C   UNK d   0       5.119   7.272  45.596  0.00  0.00     0.066 A 
ATOM     23  C   UNK d   0       4.616   6.008  45.322  0.00  0.00     0.062 C 
ATOM     24  C   UNK d   0       5.878   7.925  46.643  0.00  0.00    -0.020 A 
ATOM     25  C   UNK d   0       4.002   5.564  44.141  0.00  0.00     0.041 A 
ATOM     26  N   UNK d   0       3.130   6.157  43.316  0.00  0.00    -0.355 N 
ATOM     27  C   UNK d   0       4.322   4.277  43.656  0.00  0.00    -0.022 A 
ATOM     28  C   UNK d   0       2.885   5.292  42.320  0.00  0.00     0.042 A 
ATOM     29  H   UNK d   0       2.670   7.167  43.450  0.00  0.00     0.166 HD
ATOM     30  C   UNK d   0       2.059   5.396  41.189  0.00  0.00     0.062 C 
ATOM     31  C   UNK d   0       3.620   4.097  42.504  0.00  0.00    -0.013 A 
ATOM     32  C   UNK d   0       1.862   6.498  40.373  0.00  0.00     0.066 A 
BRANCH   8  33
ATOM     33  C   UNK d   0       0.751   8.694  37.641  0.00  0.00     0.151 C 
BRANCH  33  34
ATOM     34  C   UNK d   0       1.697   8.761  36.513  0.00  0.00     0.143 C 
ATOM     35  O   UNK d   0       2.461   7.817  36.265  0.00  0.00    -0.650 OA
BRANCH  34  36
ATOM     36  O   UNK d   0       1.731   9.889  35.726  0.00  0.00    -0.776 OA
ATOM     37  H   UNK d   0       0.927  10.158  35.142  0.00  0.00     0.167 HD
ENDBRANCH  34  36
ENDBRANCH  33  34
ENDBRANCH   8  33
BRANCH  31  38
ATOM     38  C   UNK d   0       3.653   2.870  41.623  0.00  0.00     0.151 C 
BRANCH  38  39
ATOM     39  C   UNK d   0       2.505   2.010  41.814  0.00  0.00     0.143 C 
ATOM     40  O   UNK d   0       2.237   1.075  41.039  0.00  0.00    -0.650 OA
BRANCH  39  41
ATOM     41  O   UNK d   0       1.660   2.225  42.903  0.00  0.00    -0.776 OA
ATOM     42  H   UNK d   0       1.339   3.186  43.055  0.00  0.00     0.167 HD
ENDBRANCH  39  41
ENDBRANCH  38  39
ENDBRANCH  31  38
BRANCH  27  43
ATOM     43  C   UNK d   0       5.247   3.237  44.238  0.00  0.00     0.052 C 
BRANCH  43  44
ATOM     44  C   UNK d   0       4.534   2.192  45.034  0.00  0.00     0.115 C 
BRANCH  44  45
ATOM     45  C   UNK d   0       5.012   2.326  46.435  0.00  0.00     0.139 C 
ATOM     46  O   UNK d   0       6.154   1.884  46.716  0.00  0.00    -0.650 OA
BRANCH  45  47
ATOM     47  O   UNK d   0       4.261   2.918  47.427  0.00  0.00    -0.776 OA
ATOM     48  H   UNK d   0       4.205   2.541  48.387  0.00  0.00     0.167 HD
ENDBRANCH  45  47
ENDBRANCH  44  45
ENDBRANCH  43  44
ENDBRANCH  27  43
BRANCH  24  49
ATOM     49  C   UNK d   0       6.362   7.266  47.868  0.00  0.00     0.052 C 
BRANCH  49  50
ATOM     50  C   UNK d   0       5.445   6.132  48.250  0.00  0.00     0.115 C 
BRANCH  50  51
ATOM     51  C   UNK d   0       5.933   5.190  49.249  0.00  0.00     0.139 C 
ATOM     52  O   UNK d   0       5.196   4.326  49.781  0.00  0.00    -0.650 OA
BRANCH  51  53
ATOM     53  O   UNK d   0       7.261   5.235  49.644  0.00  0.00    -0.776 OA
ATOM     54  H   UNK d   0       7.469   5.543  50.578  0.00  0.00     0.167 HD
ENDBRANCH  51  53
ENDBRANCH  50  51
ENDBRANCH  49  50
ENDBRANCH  24  49
BRANCH  21  55
ATOM     55  C   UNK d   0       6.843  10.208  47.060  0.00  0.00     0.151 C 
BRANCH  55  56
ATOM     56  C   UNK d   0       8.298  10.006  46.991  0.00  0.00     0.143 C 
ATOM     57  O   UNK d   0       8.821   9.079  46.342  0.00  0.00    -0.650 OA
BRANCH  56  58
ATOM     58  O   UNK d   0       9.111  10.899  47.688  0.00  0.00    -0.776 OA
ATOM     59  H   UNK d   0       8.667  11.806  47.917  0.00  0.00     0.167 HD
ENDBRANCH  56  58
ENDBRANCH  55  56
ENDBRANCH  21  55
BRANCH  18  60
ATOM     60  C   UNK d   0       3.745  12.999  43.680  0.00  0.00     0.151 C 
BRANCH  60  61
ATOM     61  C   UNK d   0       2.619  12.802  44.607  0.00  0.00     0.143 C 
ATOM     62  O   UNK d   0       2.109  11.732  44.938  0.00  0.00    -0.650 OA
BRANCH  61  63
ATOM     63  O   UNK d   0       2.084  13.988  45.164  0.00  0.00    -0.776 OA
ATOM     64  H   UNK d   0       1.331  13.955  45.829  0.00  0.00     0.167 HD
ENDBRANCH  61  63
ENDBRANCH  60  61
ENDBRANCH  18  60
BRANCH  14  65
ATOM     65  C   UNK d   0       2.279  12.687  41.041  0.00  0.00     0.052 C 
BRANCH  65  66
ATOM     66  C   UNK d   0       0.880  12.716  41.546  0.00  0.00     0.115 C 
BRANCH  66  67
ATOM     67  C   UNK d   0       0.188  11.483  41.795  0.00  0.00     0.139 C 
ATOM     68  O   UNK d   0      -0.433  10.920  40.820  0.00  0.00    -0.650 OA
BRANCH  67  69
ATOM     69  O   UNK d   0       0.093  10.785  42.999  0.00  0.00    -0.776 OA
ATOM     70  H   UNK d   0       0.949  10.762  43.572  0.00  0.00     0.167 HD
ENDBRANCH  67  69
ENDBRANCH  66  67
ENDBRANCH  65  66
ENDBRANCH  14  65
ENDBRANCH   6   7
ENDBRANCH   5   6
ENDBRANCH   2   5
TORSDOF 28
ENDMDL
MODEL 6
REMARK VINA RESULT:      -9.2     28.839     33.705
REMARK  28 active torsions:
REMARK  status: ('A' for Active; 'I' for Inactive)
REMARK    1  A    between atoms: C_2  and  O_3 
REMARK    2  A    between atoms: C_2  and  C_4 
REMARK    3  A    between atoms: C_4  and  C_5 
REMARK    4  A    between atoms: C_5  and  C_6 
REMARK    5  A    between atoms: C_7  and  C_8 
REMARK    6  A    between atoms: C_8  and  C_9 
REMARK    7  A    between atoms: C_9  and  O_11 
REMARK    8  A    between atoms: C_28  and  C_29 
REMARK    9  A    between atoms: C_29  and  C_30 
REMARK   10  A    between atoms: C_30  and  O_32 
REMARK   11  A    between atoms: C_33  and  C_34 
REMARK   12  A    between atoms: C_34  and  C_35 
REMARK   13  A    between atoms: C_35  and  C_36 
REMARK   14  A    between atoms: C_36  and  O_38 
REMARK   15  A    between atoms: C_39  and  C_40 
REMARK   16  A    between atoms: C_40  and  C_41 
REMARK   17  A    between atoms: C_41  and  C_42 
REMARK   18  A    between atoms: C_42  and  O_44 
REMARK   19  A    between atoms: C_45  and  C_46 
REMARK   20  A    between atoms: C_46  and  C_47 
REMARK   21  A    between atoms: C_47  and  O_49 
REMARK   22  A    between atoms: C_50  and  C_51 
REMARK   23  A    between atoms: C_51  and  C_52 
REMARK   24  A    between atoms: C_52  and  O_54 
REMARK   25  A    between atoms: C_55  and  C_56 
REMARK   26  A    between atoms: C_56  and  C_57 
REMARK   27  A    between atoms: C_57  and  C_58 
REMARK   28  A    between atoms: C_58  and  O_60 
ROOT
ATOM      1  O   UNK d   0       0.837   7.111  34.854  0.00  0.00    -0.650 OA
ATOM      2  C   UNK d   0       1.923   7.471  35.359  0.00  0.00     0.139 C 
ENDROOT
BRANCH   2   3
ATOM      3  O   UNK d   0       3.054   6.727  35.124  0.00  0.00    -0.776 OA
ATOM      4  H   UNK d   0       3.648   6.912  34.312  0.00  0.00     0.167 HD
ENDBRANCH   2   3
BRANCH   2   5
ATOM      5  C   UNK d   0       1.985   8.694  36.208  0.00  0.00     0.115 C 
BRANCH   5   6
ATOM      6  C   UNK d   0       0.904   8.653  37.254  0.00  0.00     0.052 C 
BRANCH   6   7
ATOM      7  C   UNK d   0       1.335   7.929  38.507  0.00  0.00    -0.020 A 
ATOM      8  C   UNK d   0       1.160   6.666  38.799  0.00  0.00    -0.011 A 
ATOM      9  C   UNK d   0       1.733   6.429  40.114  0.00  0.00     0.067 A 
ATOM     10  C   UNK d   0       1.891   5.325  40.966  0.00  0.00     0.062 C 
ATOM     11  N   UNK d   0       2.231   7.605  40.551  0.00  0.00    -0.248 NA
ATOM     12  C   UNK d   0       2.724   5.231  42.086  0.00  0.00     0.041 A 
ATOM     13  N   UNK d   0       2.974   6.104  43.080  0.00  0.00    -0.355 N 
ATOM     14  C   UNK d   0       3.514   4.079  42.252  0.00  0.00    -0.022 A 
ATOM     15  C   UNK d   0       3.909   5.539  43.868  0.00  0.00     0.042 A 
ATOM     16  H   UNK d   0       2.486   7.092  43.233  0.00  0.00     0.166 HD
ATOM     17  C   UNK d   0       4.525   6.018  45.041  0.00  0.00     0.062 C 
ATOM     18  C   UNK d   0       4.273   4.269  43.380  0.00  0.00    -0.013 A 
ATOM     19  C   UNK d   0       5.034   7.265  45.301  0.00  0.00     0.067 A 
ATOM     20  N   UNK d   0       4.749   8.230  44.422  0.00  0.00    -0.248 NA
ATOM     21  C   UNK d   0       5.866   7.860  46.333  0.00  0.00    -0.011 A 
ATOM     22  C   UNK d   0       5.336   9.411  44.804  0.00  0.00     0.066 A 
ATOM     23  C   UNK d   0       5.089  10.511  43.996  0.00  0.00     0.062 C 
ATOM     24  C   UNK d   0       6.042   9.115  46.035  0.00  0.00    -0.020 A 
ATOM     25  C   UNK d   0       4.238  10.588  42.883  0.00  0.00     0.041 A 
ATOM     26  N   UNK d   0       4.001   9.726  41.887  0.00  0.00    -0.355 N 
ATOM     27  C   UNK d   0       3.442  11.742  42.720  0.00  0.00    -0.022 A 
ATOM     28  C   UNK d   0       3.075  10.291  41.095  0.00  0.00     0.042 A 
ATOM     29  H   UNK d   0       4.500   8.739  41.728  0.00  0.00     0.166 HD
ATOM     30  C   UNK d   0       2.460   9.830  39.920  0.00  0.00     0.062 C 
ATOM     31  C   UNK d   0       2.702  11.563  41.591  0.00  0.00    -0.013 A 
ATOM     32  C   UNK d   0       2.024   8.547  39.630  0.00  0.00     0.066 A 
BRANCH   8  33
ATOM     33  C   UNK d   0       0.497   5.648  37.963  0.00  0.00     0.151 C 
BRANCH  33  34
ATOM     34  C   UNK d   0       0.522   4.305  38.571  0.00  0.00     0.143 C 
ATOM     35  O   UNK d   0       1.427   3.502  38.304  0.00  0.00    -0.650 OA
BRANCH  34  36
ATOM     36  O   UNK d   0      -0.476   3.941  39.446  0.00  0.00    -0.776 OA
ATOM     37  H   UNK d   0      -1.057   4.648  39.918  0.00  0.00     0.167 HD
ENDBRANCH  34  36
ENDBRANCH  33  34
ENDBRANCH   8  33
BRANCH  31  38
ATOM     38  C   UNK d   0       1.692  12.532  41.024  0.00  0.00     0.151 C 
BRANCH  38  39
ATOM     39  C   UNK d   0       0.350  12.293  41.509  0.00  0.00     0.143 C 
ATOM     40  O   UNK d   0      -0.531  11.775  40.800  0.00  0.00    -0.650 OA
BRANCH  39  41
ATOM     41  O   UNK d   0       0.018  12.649  42.816  0.00  0.00    -0.776 OA
ATOM     42  H   UNK d   0      -0.646  12.042  43.305  0.00  0.00     0.167 HD
ENDBRANCH  39  41
ENDBRANCH  38  39
ENDBRANCH  31  38
BRANCH  27  43
ATOM     43  C   UNK d   0       3.363  12.981  43.577  0.00  0.00     0.052 C 
BRANCH  43  44
ATOM     44  C   UNK d   0       2.766  12.730  44.924  0.00  0.00     0.115 C 
BRANCH  44  45
ATOM     45  C   UNK d   0       3.019  13.951  45.734  0.00  0.00     0.139 C 
ATOM     46  O   UNK d   0       4.201  14.198  46.078  0.00  0.00    -0.650 OA
BRANCH  45  47
ATOM     47  O   UNK d   0       2.016  14.816  46.113  0.00  0.00    -0.776 OA
ATOM     48  H   UNK d   0       1.868  15.734  45.662  0.00  0.00     0.167 HD
ENDBRANCH  45  47
ENDBRANCH  44  45
ENDBRANCH  43  44
ENDBRANCH  27  43
BRANCH  24  49
ATOM     49  C   UNK d   0       6.792  10.100  46.833  0.00  0.00     0.052 C 
BRANCH  49  50
ATOM     50  C   UNK d   0       8.272   9.828  46.747  0.00  0.00     0.115 C 
BRANCH  50  51
ATOM     51  C   UNK d   0       9.041   9.941  47.979  0.00  0.00     0.139 C 
ATOM     52  O   UNK d   0       9.739   9.002  48.429  0.00  0.00    -0.650 OA
BRANCH  51  53
ATOM     53  O   UNK d   0       9.012  11.125  48.700  0.00  0.00    -0.776 OA
ATOM     54  H   UNK d   0       9.307  11.968  48.241  0.00  0.00     0.167 HD
ENDBRANCH  51  53
ENDBRANCH  50  51
ENDBRANCH  49  50
ENDBRANCH  24  49
BRANCH  21  55
ATOM     55  C   UNK d   0       6.394   7.113  47.513  0.00  0.00     0.151 C 
BRANCH  55  56
ATOM     56  C   UNK d   0       5.418   6.143  48.034  0.00  0.00     0.143 C 
ATOM     57  O   UNK d   0       4.270   6.469  48.393  0.00  0.00    -0.650 OA
BRANCH  56  58
ATOM     58  O   UNK d   0       5.812   4.809  48.122  0.00  0.00    -0.776 OA
ATOM     59  H   UNK d   0       6.396   4.580  48.947  0.00  0.00     0.167 HD
ENDBRANCH  56  58
ENDBRANCH  55  56
ENDBRANCH  21  55
BRANCH  18  60
ATOM     60  C   UNK d   0       5.273   3.281  43.926  0.00  0.00     0.151 C 
BRANCH  60  61
ATOM     61  C   UNK d   0       4.622   2.644  45.081  0.00  0.00     0.143 C 
ATOM     62  O   UNK d   0       4.663   3.016  46.254  0.00  0.00    -0.650 OA
BRANCH  61  63
ATOM     63  O   UNK d   0       3.874   1.479  44.785  0.00  0.00    -0.776 OA
ATOM     64  H   UNK d   0       4.276   0.725  44.257  0.00  0.00     0.167 HD
ENDBRANCH  61  63
ENDBRANCH  60  61
ENDBRANCH  18  60
BRANCH  14  65
ATOM     65  C   UNK d   0       3.535   2.786  41.488  0.00  0.00     0.052 C 
BRANCH  65  66
ATOM     66  C   UNK d   0       2.514   1.814  41.962  0.00  0.00     0.115 C 
BRANCH  66  67
ATOM     67  C   UNK d   0       1.159   2.244  42.159  0.00  0.00     0.139 C 
ATOM     68  O   UNK d   0       0.301   2.016  41.229  0.00  0.00    -0.650 OA
BRANCH  67  69
ATOM     69  O   UNK d   0       0.625   2.904  43.266  0.00  0.00    -0.776 OA
ATOM     70  H   UNK d   0      -0.292   2.565  43.591  0.00  0.00     0.167 HD
ENDBRANCH  67  69
ENDBRANCH  66  67
ENDBRANCH  65  66
ENDBRANCH  14  65
ENDBRANCH   6   7
ENDBRANCH   5   6
ENDBRANCH   2   5
TORSDOF 28
ENDMDL
MODEL 7
REMARK VINA RESULT:      -8.8     28.648     32.740
REMARK  28 active torsions:
REMARK  status: ('A' for Active; 'I' for Inactive)
REMARK    1  A    between atoms: C_2  and  O_3 
REMARK    2  A    between atoms: C_2  and  C_4 
REMARK    3  A    between atoms: C_4  and  C_5 
REMARK    4  A    between atoms: C_5  and  C_6 
REMARK    5  A    between atoms: C_7  and  C_8 
REMARK    6  A    between atoms: C_8  and  C_9 
REMARK    7  A    between atoms: C_9  and  O_11 
REMARK    8  A    between atoms: C_28  and  C_29 
REMARK    9  A    between atoms: C_29  and  C_30 
REMARK   10  A    between atoms: C_30  and  O_32 
REMARK   11  A    between atoms: C_33  and  C_34 
REMARK   12  A    between atoms: C_34  and  C_35 
REMARK   13  A    between atoms: C_35  and  C_36 
REMARK   14  A    between atoms: C_36  and  O_38 
REMARK   15  A    between atoms: C_39  and  C_40 
REMARK   16  A    between atoms: C_40  and  C_41 
REMARK   17  A    between atoms: C_41  and  C_42 
REMARK   18  A    between atoms: C_42  and  O_44 
REMARK   19  A    between atoms: C_45  and  C_46 
REMARK   20  A    between atoms: C_46  and  C_47 
REMARK   21  A    between atoms: C_47  and  O_49 
REMARK   22  A    between atoms: C_50  and  C_51 
REMARK   23  A    between atoms: C_51  and  C_52 
REMARK   24  A    between atoms: C_52  and  O_54 
REMARK   25  A    between atoms: C_55  and  C_56 
REMARK   26  A    between atoms: C_56  and  C_57 
REMARK   27  A    between atoms: C_57  and  C_58 
REMARK   28  A    between atoms: C_58  and  O_60 
ROOT
ATOM      1  O   UNK d   0       2.785   2.566  48.975  0.00  0.00    -0.650 OA
ATOM      2  C   UNK d   0       3.468   1.975  48.109  0.00  0.00     0.139 C 
ENDROOT
BRANCH   2   3
ATOM      3  O   UNK d   0       2.929   0.901  47.444  0.00  0.00    -0.776 OA
ATOM      4  H   UNK d   0       3.116   0.747  46.450  0.00  0.00     0.167 HD
ENDBRANCH   2   3
BRANCH   2   5
ATOM      5  C   UNK d   0       4.853   2.436  47.805  0.00  0.00     0.115 C 
BRANCH   5   6
ATOM      6  C   UNK d   0       5.241   2.024  46.411  0.00  0.00     0.052 C 
BRANCH   6   7
ATOM      7  C   UNK d   0       4.779   3.009  45.364  0.00  0.00    -0.020 A 
ATOM      8  C   UNK d   0       4.338   2.747  44.160  0.00  0.00    -0.011 A 
ATOM      9  C   UNK d   0       4.022   4.011  43.517  0.00  0.00     0.067 A 
ATOM     10  C   UNK d   0       3.506   4.414  42.275  0.00  0.00     0.062 C 
ATOM     11  N   UNK d   0       4.306   4.992  44.399  0.00  0.00    -0.248 NA
ATOM     12  C   UNK d   0       3.006   5.675  41.935  0.00  0.00     0.041 A 
ATOM     13  N   UNK d   0       3.459   6.913  42.210  0.00  0.00    -0.355 N 
ATOM     14  C   UNK d   0       1.792   5.758  41.227  0.00  0.00    -0.022 A 
ATOM     15  C   UNK d   0       2.561   7.778  41.703  0.00  0.00     0.042 A 
ATOM     16  H   UNK d   0       4.405   7.170  42.735  0.00  0.00     0.166 HD
ATOM     17  C   UNK d   0       2.547   9.187  41.708  0.00  0.00     0.062 C 
ATOM     18  C   UNK d   0       1.502   7.091  41.079  0.00  0.00    -0.013 A 
ATOM     19  C   UNK d   0       2.821  10.048  42.740  0.00  0.00     0.067 A 
ATOM     20  N   UNK d   0       3.365   9.521  43.840  0.00  0.00    -0.248 NA
ATOM     21  C   UNK d   0       2.656  11.472  42.984  0.00  0.00    -0.011 A 
ATOM     22  C   UNK d   0       3.567  10.496  44.786  0.00  0.00     0.066 A 
ATOM     23  C   UNK d   0       4.164  10.091  45.970  0.00  0.00     0.062 C 
ATOM     24  C   UNK d   0       3.091  11.726  44.185  0.00  0.00    -0.020 A 
ATOM     25  C   UNK d   0       4.672   8.821  46.287  0.00  0.00     0.041 A 
ATOM     26  N   UNK d   0       4.213   7.591  46.027  0.00  0.00    -0.355 N 
ATOM     27  C   UNK d   0       5.892   8.739  46.993  0.00  0.00    -0.022 A 
ATOM     28  C   UNK d   0       5.103   6.726  46.540  0.00  0.00     0.042 A 
ATOM     29  H   UNK d   0       3.257   7.335  45.508  0.00  0.00     0.166 HD
ATOM     30  C   UNK d   0       5.125   5.323  46.549  0.00  0.00     0.062 C 
ATOM     31  C   UNK d   0       6.172   7.417  47.157  0.00  0.00    -0.013 A 
ATOM     32  C   UNK d   0       4.765   4.455  45.530  0.00  0.00     0.066 A 
BRANCH   8  33
ATOM     33  C   UNK d   0       4.187   1.416  43.544  0.00  0.00     0.151 C 
BRANCH  33  34
ATOM     34  C   UNK d   0       3.602   1.476  42.193  0.00  0.00     0.143 C 
ATOM     35  O   UNK d   0       4.309   1.710  41.203  0.00  0.00    -0.650 OA
BRANCH  34  36
ATOM     36  O   UNK d   0       2.251   1.270  42.032  0.00  0.00    -0.776 OA
ATOM     37  H   UNK d   0       1.892   0.576  41.362  0.00  0.00     0.167 HD
ENDBRANCH  34  36
ENDBRANCH  33  34
ENDBRANCH   8  33
BRANCH  31  38
ATOM     38  C   UNK d   0       7.388   6.842  47.845  0.00  0.00     0.151 C 
BRANCH  38  39
ATOM     39  C   UNK d   0       7.199   6.671  49.270  0.00  0.00     0.143 C 
ATOM     40  O   UNK d   0       6.465   5.785  49.742  0.00  0.00    -0.650 OA
BRANCH  39  41
ATOM     41  O   UNK d   0       7.856   7.523  50.156  0.00  0.00    -0.776 OA
ATOM     42  H   UNK d   0       8.131   7.126  51.060  0.00  0.00     0.167 HD
ENDBRANCH  39  41
ENDBRANCH  38  39
ENDBRANCH  31  38
BRANCH  27  43
ATOM     43  C   UNK d   0       6.778   9.846  47.508  0.00  0.00     0.052 C 
BRANCH  43  44
ATOM     44  C   UNK d   0       8.072   9.959  46.769  0.00  0.00     0.115 C 
BRANCH  44  45
ATOM     45  C   UNK d   0       9.148   9.955  47.794  0.00  0.00     0.139 C 
ATOM     46  O   UNK d   0       8.821  10.119  48.995  0.00  0.00    -0.650 OA
BRANCH  45  47
ATOM     47  O   UNK d   0      10.477   9.773  47.481  0.00  0.00    -0.776 OA
ATOM     48  H   UNK d   0      11.242  10.242  47.991  0.00  0.00     0.167 HD
ENDBRANCH  45  47
ENDBRANCH  44  45
ENDBRANCH  43  44
ENDBRANCH  27  43
BRANCH  24  49
ATOM     49  C   UNK d   0       3.146  13.051  44.825  0.00  0.00     0.052 C 
BRANCH  49  50
ATOM     50  C   UNK d   0       4.576  13.506  44.967  0.00  0.00     0.115 C 
BRANCH  50  51
ATOM     51  C   UNK d   0       4.797  14.884  45.385  0.00  0.00     0.139 C 
ATOM     52  O   UNK d   0       5.941  15.356  45.582  0.00  0.00    -0.650 OA
BRANCH  51  53
ATOM     53  O   UNK d   0       3.711  15.724  45.581  0.00  0.00    -0.776 OA
ATOM     54  H   UNK d   0       3.673  16.261  46.430  0.00  0.00     0.167 HD
ENDBRANCH  51  53
ENDBRANCH  50  51
ENDBRANCH  49  50
ENDBRANCH  24  49
BRANCH  21  55
ATOM     55  C   UNK d   0       2.086  12.429  41.991  0.00  0.00     0.151 C 
BRANCH  55  56
ATOM     56  C   UNK d   0       0.625  12.305  41.881  0.00  0.00     0.143 C 
ATOM     57  O   UNK d   0       0.061  11.839  40.872  0.00  0.00    -0.650 OA
BRANCH  56  58
ATOM     58  O   UNK d   0      -0.146  12.732  42.962  0.00  0.00    -0.776 OA
ATOM     59  H   UNK d   0      -0.656  11.979  43.458  0.00  0.00     0.167 HD
ENDBRANCH  56  58
ENDBRANCH  55  56
ENDBRANCH  21  55
BRANCH  18  60
ATOM     60  C   UNK d   0       0.280   7.637  40.383  0.00  0.00     0.151 C 
BRANCH  60  61
ATOM     61  C   UNK d   0      -0.671   7.984  41.451  0.00  0.00     0.143 C 
ATOM     62  O   UNK d   0      -1.121   7.234  42.317  0.00  0.00    -0.650 OA
BRANCH  61  63
ATOM     63  O   UNK d   0      -1.100   9.333  41.460  0.00  0.00    -0.776 OA
ATOM     64  H   UNK d   0      -1.090   9.874  42.307  0.00  0.00     0.167 HD
ENDBRANCH  61  63
ENDBRANCH  60  61
ENDBRANCH  18  60
BRANCH  14  65
ATOM     65  C   UNK d   0       0.947   4.685  40.602  0.00  0.00     0.052 C 
BRANCH  65  66
ATOM     66  C   UNK d   0      -0.274   4.372  41.393  0.00  0.00     0.115 C 
BRANCH  66  67
ATOM     67  C   UNK d   0      -0.301   3.204  42.228  0.00  0.00     0.139 C 
ATOM     68  O   UNK d   0      -0.422   2.052  41.669  0.00  0.00    -0.650 OA
BRANCH  67  69
ATOM     69  O   UNK d   0      -0.209   3.147  43.618  0.00  0.00    -0.776 OA
ATOM     70  H   UNK d   0       0.649   3.544  44.027  0.00  0.00     0.167 HD
ENDBRANCH  67  69
ENDBRANCH  66  67
ENDBRANCH  65  66
ENDBRANCH  14  65
ENDBRANCH   6   7
ENDBRANCH   5   6
ENDBRANCH   2   5
TORSDOF 28
ENDMDL
MODEL 8
REMARK VINA RESULT:      -8.6      1.331      7.745
REMARK  28 active torsions:
REMARK  status: ('A' for Active; 'I' for Inactive)
REMARK    1  A    between atoms: C_2  and  O_3 
REMARK    2  A    between atoms: C_2  and  C_4 
REMARK    3  A    between atoms: C_4  and  C_5 
REMARK    4  A    between atoms: C_5  and  C_6 
REMARK    5  A    between atoms: C_7  and  C_8 
REMARK    6  A    between atoms: C_8  and  C_9 
REMARK    7  A    between atoms: C_9  and  O_11 
REMARK    8  A    between atoms: C_28  and  C_29 
REMARK    9  A    between atoms: C_29  and  C_30 
REMARK   10  A    between atoms: C_30  and  O_32 
REMARK   11  A    between atoms: C_33  and  C_34 
REMARK   12  A    between atoms: C_34  and  C_35 
REMARK   13  A    between atoms: C_35  and  C_36 
REMARK   14  A    between atoms: C_36  and  O_38 
REMARK   15  A    between atoms: C_39  and  C_40 
REMARK   16  A    between atoms: C_40  and  C_41 
REMARK   17  A    between atoms: C_41  and  C_42 
REMARK   18  A    between atoms: C_42  and  O_44 
REMARK   19  A    between atoms: C_45  and  C_46 
REMARK   20  A    between atoms: C_46  and  C_47 
REMARK   21  A    between atoms: C_47  and  O_49 
REMARK   22  A    between atoms: C_50  and  C_51 
REMARK   23  A    between atoms: C_51  and  C_52 
REMARK   24  A    between atoms: C_52  and  O_54 
REMARK   25  A    between atoms: C_55  and  C_56 
REMARK   26  A    between atoms: C_56  and  C_57 
REMARK   27  A    between atoms: C_57  and  C_58 
REMARK   28  A    between atoms: C_58  and  O_60 
ROOT
ATOM      1  O   UNK d   0      32.817   1.611  46.005  0.00  0.00    -0.650 OA
ATOM      2  C   UNK d   0      34.060   1.734  45.931  0.00  0.00     0.139 C 
ENDROOT
BRANCH   2   3
ATOM      3  O   UNK d   0      34.591   2.845  45.322  0.00  0.00    -0.776 OA
ATOM      4  H   UNK d   0      35.251   3.452  45.813  0.00  0.00     0.167 HD
ENDBRANCH   2   3
BRANCH   2   5
ATOM      5  C   UNK d   0      34.952   0.684  46.499  0.00  0.00     0.115 C 
BRANCH   5   6
ATOM      6  C   UNK d   0      34.147  -0.533  46.869  0.00  0.00     0.052 C 
BRANCH   6   7
ATOM      7  C   UNK d   0      34.357  -1.682  45.911  0.00  0.00    -0.020 A 
ATOM      8  C   UNK d   0      35.027  -2.785  46.123  0.00  0.00    -0.011 A 
ATOM      9  C   UNK d   0      34.959  -3.586  44.912  0.00  0.00     0.067 A 
ATOM     10  C   UNK d   0      35.431  -4.842  44.501  0.00  0.00     0.062 C 
ATOM     11  N   UNK d   0      34.232  -2.891  44.012  0.00  0.00    -0.248 NA
ATOM     12  C   UNK d   0      35.027  -5.574  43.379  0.00  0.00     0.041 A 
ATOM     13  N   UNK d   0      34.782  -5.190  42.112  0.00  0.00    -0.355 N 
ATOM     14  C   UNK d   0      34.757  -6.947  43.523  0.00  0.00    -0.022 A 
ATOM     15  C   UNK d   0      34.355  -6.282  41.450  0.00  0.00     0.042 A 
ATOM     16  H   UNK d   0      34.926  -4.171  41.688  0.00  0.00     0.166 HD
ATOM     17  C   UNK d   0      33.965  -6.441  40.105  0.00  0.00     0.062 C 
ATOM     18  C   UNK d   0      34.325  -7.403  42.302  0.00  0.00    -0.013 A 
ATOM     19  C   UNK d   0      33.155  -5.640  39.342  0.00  0.00     0.067 A 
ATOM     20  N   UNK d   0      32.837  -4.445  39.847  0.00  0.00    -0.248 NA
ATOM     21  C   UNK d   0      32.493  -5.749  38.052  0.00  0.00    -0.011 A 
ATOM     22  C   UNK d   0      32.014  -3.766  38.982  0.00  0.00     0.066 A 
ATOM     23  C   UNK d   0      31.635  -2.488  39.367  0.00  0.00     0.062 C 
ATOM     24  C   UNK d   0      31.823  -4.651  37.850  0.00  0.00    -0.020 A 
ATOM     25  C   UNK d   0      32.062  -1.766  40.492  0.00  0.00     0.041 A 
ATOM     26  N   UNK d   0      32.292  -2.145  41.755  0.00  0.00    -0.355 N 
ATOM     27  C   UNK d   0      32.338  -0.389  40.345  0.00  0.00    -0.022 A 
ATOM     28  C   UNK d   0      32.710  -1.055  42.419  0.00  0.00     0.042 A 
ATOM     29  H   UNK d   0      32.136  -3.166  42.181  0.00  0.00     0.166 HD
ATOM     30  C   UNK d   0      33.092  -0.881  43.758  0.00  0.00     0.062 C 
ATOM     31  C   UNK d   0      32.749   0.068  41.560  0.00  0.00    -0.013 A 
ATOM     32  C   UNK d   0      33.840  -1.736  44.552  0.00  0.00     0.066 A 
BRANCH   8  33
ATOM     33  C   UNK d   0      35.736  -3.167  47.358  0.00  0.00     0.151 C 
BRANCH  33  34
ATOM     34  C   UNK d   0      37.145  -2.732  47.364  0.00  0.00     0.143 C 
ATOM     35  O   UNK d   0      38.024  -3.416  46.822  0.00  0.00    -0.650 OA
BRANCH  34  36
ATOM     36  O   UNK d   0      37.485  -1.552  47.983  0.00  0.00    -0.776 OA
ATOM     37  H   UNK d   0      37.806  -0.738  47.442  0.00  0.00     0.167 HD
ENDBRANCH  34  36
ENDBRANCH  33  34
ENDBRANCH   8  33
BRANCH  31  38
ATOM     38  C   UNK d   0      33.167   1.483  41.884  0.00  0.00     0.151 C 
BRANCH  38  39
ATOM     39  C   UNK d   0      32.150   2.218  42.606  0.00  0.00     0.143 C 
ATOM     40  O   UNK d   0      32.397   3.273  43.215  0.00  0.00    -0.650 OA
BRANCH  39  41
ATOM     41  O   UNK d   0      30.841   1.736  42.628  0.00  0.00    -0.776 OA
ATOM     42  H   UNK d   0      30.624   1.020  43.328  0.00  0.00     0.167 HD
ENDBRANCH  39  41
ENDBRANCH  38  39
ENDBRANCH  31  38
BRANCH  27  43
ATOM     43  C   UNK d   0      32.225   0.486  39.122  0.00  0.00     0.052 C 
BRANCH  43  44
ATOM     44  C   UNK d   0      30.975   1.303  39.094  0.00  0.00     0.115 C 
BRANCH  44  45
ATOM     45  C   UNK d   0      31.397   2.727  39.150  0.00  0.00     0.139 C 
ATOM     46  O   UNK d   0      32.603   2.996  38.924  0.00  0.00    -0.650 OA
BRANCH  45  47
ATOM     47  O   UNK d   0      30.524   3.755  39.432  0.00  0.00    -0.776 OA
ATOM     48  H   UNK d   0      29.529   3.738  39.153  0.00  0.00     0.167 HD
ENDBRANCH  45  47
ENDBRANCH  44  45
ENDBRANCH  43  44
ENDBRANCH  27  43
BRANCH  24  49
ATOM     49  C   UNK d   0      31.037  -4.323  36.649  0.00  0.00     0.052 C 
BRANCH  49  50
ATOM     50  C   UNK d   0      29.571  -4.232  36.990  0.00  0.00     0.115 C 
BRANCH  50  51
ATOM     51  C   UNK d   0      28.765  -5.427  36.782  0.00  0.00     0.139 C 
ATOM     52  O   UNK d   0      29.221  -6.466  36.248  0.00  0.00    -0.650 OA
BRANCH  51  53
ATOM     53  O   UNK d   0      27.438  -5.437  37.182  0.00  0.00    -0.776 OA
ATOM     54  H   UNK d   0      26.732  -5.585  36.482  0.00  0.00     0.167 HD
ENDBRANCH  51  53
ENDBRANCH  50  51
ENDBRANCH  49  50
ENDBRANCH  24  49
BRANCH  21  55
ATOM     55  C   UNK d   0      32.602  -6.938  37.156  0.00  0.00     0.151 C 
BRANCH  55  56
ATOM     56  C   UNK d   0      33.071  -6.572  35.810  0.00  0.00     0.143 C 
ATOM     57  O   UNK d   0      32.434  -6.850  34.775  0.00  0.00    -0.650 OA
BRANCH  56  58
ATOM     58  O   UNK d   0      34.281  -5.887  35.708  0.00  0.00    -0.776 OA
ATOM     59  H   UNK d   0      34.452  -5.190  36.455  0.00  0.00     0.167 HD
ENDBRANCH  56  58
ENDBRANCH  55  56
ENDBRANCH  21  55
BRANCH  18  60
ATOM     60  C   UNK d   0      33.917  -8.825  42.006  0.00  0.00     0.151 C 
BRANCH  60  61
ATOM     61  C   UNK d   0      32.903  -9.172  43.013  0.00  0.00     0.143 C 
ATOM     62  O   UNK d   0      31.927  -8.499  43.346  0.00  0.00    -0.650 OA
BRANCH  61  63
ATOM     63  O   UNK d   0      33.093 -10.420  43.654  0.00  0.00    -0.776 OA
ATOM     64  H   UNK d   0      33.958 -10.639  44.115  0.00  0.00     0.167 HD
ENDBRANCH  61  63
ENDBRANCH  60  61
ENDBRANCH  18  60
BRANCH  14  65
ATOM     65  C   UNK d   0      34.966  -7.871  44.688  0.00  0.00     0.052 C 
BRANCH  65  66
ATOM     66  C   UNK d   0      34.527  -7.284  45.983  0.00  0.00     0.115 C 
BRANCH  66  67
ATOM     67  C   UNK d   0      33.365  -7.808  46.644  0.00  0.00     0.139 C 
ATOM     68  O   UNK d   0      32.829  -7.114  47.584  0.00  0.00    -0.650 OA
BRANCH  67  69
ATOM     69  O   UNK d   0      32.714  -9.016  46.395  0.00  0.00    -0.776 OA
ATOM     70  H   UNK d   0      31.688  -8.999  46.486  0.00  0.00     0.167 HD
ENDBRANCH  67  69
ENDBRANCH  66  67
ENDBRANCH  65  66
ENDBRANCH  14  65
ENDBRANCH   6   7
ENDBRANCH   5   6
ENDBRANCH   2   5
TORSDOF 28
ENDMDL
MODEL 9
REMARK VINA RESULT:      -8.4     29.389     32.679
REMARK  28 active torsions:
REMARK  status: ('A' for Active; 'I' for Inactive)
REMARK    1  A    between atoms: C_2  and  O_3 
REMARK    2  A    between atoms: C_2  and  C_4 
REMARK    3  A    between atoms: C_4  and  C_5 
REMARK    4  A    between atoms: C_5  and  C_6 
REMARK    5  A    between atoms: C_7  and  C_8 
REMARK    6  A    between atoms: C_8  and  C_9 
REMARK    7  A    between atoms: C_9  and  O_11 
REMARK    8  A    between atoms: C_28  and  C_29 
REMARK    9  A    between atoms: C_29  and  C_30 
REMARK   10  A    between atoms: C_30  and  O_32 
REMARK   11  A    between atoms: C_33  and  C_34 
REMARK   12  A    between atoms: C_34  and  C_35 
REMARK   13  A    between atoms: C_35  and  C_36 
REMARK   14  A    between atoms: C_36  and  O_38 
REMARK   15  A    between atoms: C_39  and  C_40 
REMARK   16  A    between atoms: C_40  and  C_41 
REMARK   17  A    between atoms: C_41  and  C_42 
REMARK   18  A    between atoms: C_42  and  O_44 
REMARK   19  A    between atoms: C_45  and  C_46 
REMARK   20  A    between atoms: C_46  and  C_47 
REMARK   21  A    between atoms: C_47  and  O_49 
REMARK   22  A    between atoms: C_50  and  C_51 
REMARK   23  A    between atoms: C_51  and  C_52 
REMARK   24  A    between atoms: C_52  and  O_54 
REMARK   25  A    between atoms: C_55  and  C_56 
REMARK   26  A    between atoms: C_56  and  C_57 
REMARK   27  A    between atoms: C_57  and  C_58 
REMARK   28  A    between atoms: C_58  and  O_60 
ROOT
ATOM      1  O   UNK d   0       4.468  14.877  44.938  0.00  0.00    -0.650 OA
ATOM      2  C   UNK d   0       3.521  14.084  45.139  0.00  0.00     0.139 C 
ENDROOT
BRANCH   2   3
ATOM      3  O   UNK d   0       2.329  14.567  45.623  0.00  0.00    -0.776 OA
ATOM      4  H   UNK d   0       1.687  15.087  45.022  0.00  0.00     0.167 HD
ENDBRANCH   2   3
BRANCH   2   5
ATOM      5  C   UNK d   0       3.689  12.631  44.854  0.00  0.00     0.115 C 
BRANCH   5   6
ATOM      6  C   UNK d   0       3.901  12.413  43.381  0.00  0.00     0.052 C 
BRANCH   6   7
ATOM      7  C   UNK d   0       3.226  11.161  42.876  0.00  0.00    -0.020 A 
ATOM      8  C   UNK d   0       2.273  11.072  41.984  0.00  0.00    -0.011 A 
ATOM      9  C   UNK d   0       1.937   9.666  41.829  0.00  0.00     0.067 A 
ATOM     10  C   UNK d   0       1.046   8.919  41.044  0.00  0.00     0.062 C 
ATOM     11  N   UNK d   0       2.732   8.970  42.668  0.00  0.00    -0.248 NA
ATOM     12  C   UNK d   0       1.060   7.536  40.830  0.00  0.00     0.041 A 
ATOM     13  N   UNK d   0       1.260   6.510  41.679  0.00  0.00    -0.355 N 
ATOM     14  C   UNK d   0       0.899   7.048  39.521  0.00  0.00    -0.022 A 
ATOM     15  C   UNK d   0       1.237   5.384  40.941  0.00  0.00     0.042 A 
ATOM     16  H   UNK d   0       1.394   6.579  42.781  0.00  0.00     0.166 HD
ATOM     17  C   UNK d   0       1.391   4.037  41.325  0.00  0.00     0.062 C 
ATOM     18  C   UNK d   0       1.013   5.681  39.583  0.00  0.00    -0.013 A 
ATOM     19  C   UNK d   0       2.314   3.483  42.174  0.00  0.00     0.067 A 
ATOM     20  N   UNK d   0       3.052   4.327  42.900  0.00  0.00    -0.248 NA
ATOM     21  C   UNK d   0       2.747   2.137  42.513  0.00  0.00    -0.011 A 
ATOM     22  C   UNK d   0       3.937   3.631  43.687  0.00  0.00     0.066 A 
ATOM     23  C   UNK d   0       4.743   4.388  44.524  0.00  0.00     0.062 C 
ATOM     24  C   UNK d   0       3.700   2.231  43.395  0.00  0.00    -0.020 A 
ATOM     25  C   UNK d   0       4.705   5.775  44.734  0.00  0.00     0.041 A 
ATOM     26  N   UNK d   0       4.521   6.796  43.888  0.00  0.00    -0.355 N 
ATOM     27  C   UNK d   0       4.862   6.264  46.049  0.00  0.00    -0.022 A 
ATOM     28  C   UNK d   0       4.552   7.920  44.620  0.00  0.00     0.042 A 
ATOM     29  H   UNK d   0       4.397   6.726  42.779  0.00  0.00     0.166 HD
ATOM     30  C   UNK d   0       4.410   9.267  44.250  0.00  0.00     0.062 C 
ATOM     31  C   UNK d   0       4.767   7.620  45.986  0.00  0.00    -0.013 A 
ATOM     32  C   UNK d   0       3.531   9.811  43.327  0.00  0.00     0.066 A 
BRANCH   8  33
ATOM     33  C   UNK d   0       1.633  12.185  41.259  0.00  0.00     0.151 C 
BRANCH  33  34
ATOM     34  C   UNK d   0       0.276  12.483  41.751  0.00  0.00     0.143 C 
ATOM     35  O   UNK d   0       0.049  12.593  42.964  0.00  0.00    -0.650 OA
BRANCH  34  36
ATOM     36  O   UNK d   0      -0.751  12.639  40.849  0.00  0.00    -0.776 OA
ATOM     37  H   UNK d   0      -0.933  13.546  40.398  0.00  0.00     0.167 HD
ENDBRANCH  34  36
ENDBRANCH  33  34
ENDBRANCH   8  33
BRANCH  31  38
ATOM     38  C   UNK d   0       4.860   8.575  47.153  0.00  0.00     0.151 C 
BRANCH  38  39
ATOM     39  C   UNK d   0       5.963   9.504  47.033  0.00  0.00     0.143 C 
ATOM     40  O   UNK d   0       5.819  10.731  47.178  0.00  0.00    -0.650 OA
BRANCH  39  41
ATOM     41  O   UNK d   0       7.239   9.020  46.744  0.00  0.00    -0.776 OA
ATOM     42  H   UNK d   0       7.682   8.433  47.458  0.00  0.00     0.167 HD
ENDBRANCH  39  41
ENDBRANCH  38  39
ENDBRANCH  31  38
BRANCH  27  43
ATOM     43  C   UNK d   0       5.097   5.506  47.331  0.00  0.00     0.052 C 
BRANCH  43  44
ATOM     44  C   UNK d   0       6.231   6.049  48.140  0.00  0.00     0.115 C 
BRANCH  44  45
ATOM     45  C   UNK d   0       6.256   5.275  49.409  0.00  0.00     0.139 C 
ATOM     46  O   UNK d   0       5.164   5.056  49.990  0.00  0.00    -0.650 OA
BRANCH  45  47
ATOM     47  O   UNK d   0       7.419   4.789  49.964  0.00  0.00    -0.776 OA
ATOM     48  H   UNK d   0       7.887   3.933  49.625  0.00  0.00     0.167 HD
ENDBRANCH  45  47
ENDBRANCH  44  45
ENDBRANCH  43  44
ENDBRANCH  27  43
BRANCH  24  49
ATOM     49  C   UNK d   0       4.399   1.107  44.041  0.00  0.00     0.052 C 
BRANCH  49  50
ATOM     50  C   UNK d   0       4.310   1.227  45.541  0.00  0.00     0.115 C 
BRANCH  50  51
ATOM     51  C   UNK d   0       4.381  -0.007  46.312  0.00  0.00     0.139 C 
ATOM     52  O   UNK d   0       5.459  -0.608  46.529  0.00  0.00    -0.650 OA
BRANCH  51  53
ATOM     53  O   UNK d   0       3.220  -0.557  46.834  0.00  0.00    -0.776 OA
ATOM     54  H   UNK d   0       3.178  -0.728  47.824  0.00  0.00     0.167 HD
ENDBRANCH  51  53
ENDBRANCH  50  51
ENDBRANCH  49  50
ENDBRANCH  24  49
BRANCH  21  55
ATOM     55  C   UNK d   0       2.161   0.898  41.922  0.00  0.00     0.151 C 
BRANCH  55  56
ATOM     56  C   UNK d   0       2.943   0.410  40.776  0.00  0.00     0.143 C 
ATOM     57  O   UNK d   0       3.012   1.026  39.694  0.00  0.00    -0.650 OA
BRANCH  56  58
ATOM     58  O   UNK d   0       3.630  -0.794  40.925  0.00  0.00    -0.776 OA
ATOM     59  H   UNK d   0       3.152  -1.499  41.514  0.00  0.00     0.167 HD
ENDBRANCH  56  58
ENDBRANCH  55  56
ENDBRANCH  21  55
BRANCH  18  60
ATOM     60  C   UNK d   0       0.913   4.751  38.399  0.00  0.00     0.151 C 
BRANCH  60  61
ATOM     61  C   UNK d   0       0.148   3.585  38.866  0.00  0.00     0.143 C 
ATOM     62  O   UNK d   0      -0.916   3.595  39.486  0.00  0.00    -0.650 OA
BRANCH  61  63
ATOM     63  O   UNK d   0       0.718   2.327  38.556  0.00  0.00    -0.776 OA
ATOM     64  H   UNK d   0       0.233   1.472  38.766  0.00  0.00     0.167 HD
ENDBRANCH  61  63
ENDBRANCH  60  61
ENDBRANCH  18  60
BRANCH  14  65
ATOM     65  C   UNK d   0       0.550   7.760  38.244  0.00  0.00     0.052 C 
BRANCH  65  66
ATOM     66  C   UNK d   0       1.745   8.255  37.510  0.00  0.00     0.115 C 
BRANCH  66  67
ATOM     67  C   UNK d   0       1.882   9.659  37.239  0.00  0.00     0.139 C 
ATOM     68  O   UNK d   0       2.348  10.420  38.165  0.00  0.00    -0.650 OA
BRANCH  67  69
ATOM     69  O   UNK d   0       1.566  10.336  36.062  0.00  0.00    -0.776 OA
ATOM     70  H   UNK d   0       1.833  11.330  36.031  0.00  0.00     0.167 HD
ENDBRANCH  67  69
ENDBRANCH  66  67
ENDBRANCH  65  66
ENDBRANCH  14  65
ENDBRANCH   6   7
ENDBRANCH   5   6
ENDBRANCH   2   5
TORSDOF 28
ENDMDL
MODEL 10
REMARK VINA RESULT:      -8.4      1.752      7.549
REMARK  28 active torsions:
REMARK  status: ('A' for Active; 'I' for Inactive)
REMARK    1  A    between atoms: C_2  and  O_3 
REMARK    2  A    between atoms: C_2  and  C_4 
REMARK    3  A    between atoms: C_4  and  C_5 
REMARK    4  A    between atoms: C_5  and  C_6 
REMARK    5  A    between atoms: C_7  and  C_8 
REMARK    6  A    between atoms: C_8  and  C_9 
REMARK    7  A    between atoms: C_9  and  O_11 
REMARK    8  A    between atoms: C_28  and  C_29 
REMARK    9  A    between atoms: C_29  and  C_30 
REMARK   10  A    between atoms: C_30  and  O_32 
REMARK   11  A    between atoms: C_33  and  C_34 
REMARK   12  A    between atoms: C_34  and  C_35 
REMARK   13  A    between atoms: C_35  and  C_36 
REMARK   14  A    between atoms: C_36  and  O_38 
REMARK   15  A    between atoms: C_39  and  C_40 
REMARK   16  A    between atoms: C_40  and  C_41 
REMARK   17  A    between atoms: C_41  and  C_42 
REMARK   18  A    between atoms: C_42  and  O_44 
REMARK   19  A    between atoms: C_45  and  C_46 
REMARK   20  A    between atoms: C_46  and  C_47 
REMARK   21  A    between atoms: C_47  and  O_49 
REMARK   22  A    between atoms: C_50  and  C_51 
REMARK   23  A    between atoms: C_51  and  C_52 
REMARK   24  A    between atoms: C_52  and  O_54 
REMARK   25  A    between atoms: C_55  and  C_56 
REMARK   26  A    between atoms: C_56  and  C_57 
REMARK   27  A    between atoms: C_57  and  C_58 
REMARK   28  A    between atoms: C_58  and  O_60 
ROOT
ATOM      1  O   UNK d   0      36.461   2.196  47.874  0.00  0.00    -0.650 OA
ATOM      2  C   UNK d   0      37.270   1.396  48.393  0.00  0.00     0.139 C 
ENDROOT
BRANCH   2   3
ATOM      3  O   UNK d   0      38.046   1.812  49.448  0.00  0.00    -0.776 OA
ATOM      4  H   UNK d   0      38.822   1.241  49.789  0.00  0.00     0.167 HD
ENDBRANCH   2   3
BRANCH   2   5
ATOM      5  C   UNK d   0      37.389   0.006  47.868  0.00  0.00     0.115 C 
BRANCH   5   6
ATOM      6  C   UNK d   0      36.024  -0.558  47.584  0.00  0.00     0.052 C 
BRANCH   6   7
ATOM      7  C   UNK d   0      36.037  -1.582  46.474  0.00  0.00    -0.020 A 
ATOM      8  C   UNK d   0      36.813  -2.630  46.363  0.00  0.00    -0.011 A 
ATOM      9  C   UNK d   0      36.467  -3.311  45.127  0.00  0.00     0.067 A 
ATOM     10  C   UNK d   0      36.892  -4.468  44.456  0.00  0.00     0.062 C 
ATOM     11  N   UNK d   0      35.474  -2.606  44.545  0.00  0.00    -0.248 NA
ATOM     12  C   UNK d   0      36.244  -5.123  43.403  0.00  0.00     0.041 A 
ATOM     13  N   UNK d   0      35.631  -4.643  42.304  0.00  0.00    -0.355 N 
ATOM     14  C   UNK d   0      36.117  -6.523  43.447  0.00  0.00    -0.022 A 
ATOM     15  C   UNK d   0      35.113  -5.702  41.653  0.00  0.00     0.042 A 
ATOM     16  H   UNK d   0      35.583  -3.579  41.984  0.00  0.00     0.166 HD
ATOM     17  C   UNK d   0      34.378  -5.767  40.453  0.00  0.00     0.062 C 
ATOM     18  C   UNK d   0      35.397  -6.898  42.340  0.00  0.00    -0.013 A 
ATOM     19  C   UNK d   0      33.336  -4.978  40.036  0.00  0.00     0.067 A 
ATOM     20  N   UNK d   0      33.090  -3.876  40.749  0.00  0.00    -0.248 NA
ATOM     21  C   UNK d   0      32.352  -5.026  38.968  0.00  0.00    -0.011 A 
ATOM     22  C   UNK d   0      32.015  -3.200  40.224  0.00  0.00     0.066 A 
ATOM     23  C   UNK d   0      31.672  -2.009  40.848  0.00  0.00     0.062 C 
ATOM     24  C   UNK d   0      31.580  -3.985  39.086  0.00  0.00    -0.020 A 
ATOM     25  C   UNK d   0      32.344  -1.362  41.896  0.00  0.00     0.041 A 
ATOM     26  N   UNK d   0      32.939  -1.838  42.996  0.00  0.00    -0.355 N 
ATOM     27  C   UNK d   0      32.474   0.043  41.849  0.00  0.00    -0.022 A 
ATOM     28  C   UNK d   0      33.449  -0.783  43.651  0.00  0.00     0.042 A 
ATOM     29  H   UNK d   0      32.978  -2.906  43.322  0.00  0.00     0.166 HD
ATOM     30  C   UNK d   0      34.174  -0.703  44.850  0.00  0.00     0.062 C 
ATOM     31  C   UNK d   0      33.173   0.418  42.955  0.00  0.00    -0.013 A 
ATOM     32  C   UNK d   0      35.169  -1.554  45.306  0.00  0.00     0.066 A 
BRANCH   8  33
ATOM     33  C   UNK d   0      37.861  -3.058  47.308  0.00  0.00     0.151 C 
BRANCH  33  34
ATOM     34  C   UNK d   0      37.321  -3.805  48.458  0.00  0.00     0.143 C 
ATOM     35  O   UNK d   0      37.467  -3.386  49.615  0.00  0.00    -0.650 OA
BRANCH  34  36
ATOM     36  O   UNK d   0      36.648  -4.985  48.242  0.00  0.00    -0.776 OA
ATOM     37  H   UNK d   0      35.622  -5.036  48.312  0.00  0.00     0.167 HD
ENDBRANCH  34  36
ENDBRANCH  33  34
ENDBRANCH   8  33
BRANCH  31  38
ATOM     38  C   UNK d   0      33.567   1.829  43.324  0.00  0.00     0.151 C 
BRANCH  38  39
ATOM     39  C   UNK d   0      32.484   2.574  43.931  0.00  0.00     0.143 C 
ATOM     40  O   UNK d   0      31.804   2.117  44.867  0.00  0.00    -0.650 OA
BRANCH  39  41
ATOM     41  O   UNK d   0      32.183   3.852  43.461  0.00  0.00    -0.776 OA
ATOM     42  H   UNK d   0      32.834   4.602  43.713  0.00  0.00     0.167 HD
ENDBRANCH  39  41
ENDBRANCH  38  39
ENDBRANCH  31  38
BRANCH  27  43
ATOM     43  C   UNK d   0      31.968   1.018  40.815  0.00  0.00     0.052 C 
BRANCH  43  44
ATOM     44  C   UNK d   0      32.889   1.174  39.649  0.00  0.00     0.115 C 
BRANCH  44  45
ATOM     45  C   UNK d   0      32.086   0.883  38.433  0.00  0.00     0.139 C 
ATOM     46  O   UNK d   0      32.670   0.369  37.447  0.00  0.00    -0.650 OA
BRANCH  45  47
ATOM     47  O   UNK d   0      30.737   1.149  38.347  0.00  0.00    -0.776 OA
ATOM     48  H   UNK d   0      30.298   1.552  37.503  0.00  0.00     0.167 HD
ENDBRANCH  45  47
ENDBRANCH  44  45
ENDBRANCH  43  44
ENDBRANCH  27  43
BRANCH  24  49
ATOM     49  C   UNK d   0      30.471  -3.620  38.187  0.00  0.00     0.052 C 
BRANCH  49  50
ATOM     50  C   UNK d   0      30.798  -2.353  37.439  0.00  0.00     0.115 C 
BRANCH  50  51
ATOM     51  C   UNK d   0      29.921  -1.989  36.334  0.00  0.00     0.139 C 
ATOM     52  O   UNK d   0      29.670  -0.798  36.034  0.00  0.00    -0.650 OA
BRANCH  51  53
ATOM     53  O   UNK d   0      29.328  -2.984  35.572  0.00  0.00    -0.776 OA
ATOM     54  H   UNK d   0      29.922  -3.669  35.139  0.00  0.00     0.167 HD
ENDBRANCH  51  53
ENDBRANCH  50  51
ENDBRANCH  49  50
ENDBRANCH  24  49
BRANCH  21  55
ATOM     55  C   UNK d   0      32.289  -6.105  37.938  0.00  0.00     0.151 C 
BRANCH  55  56
ATOM     56  C   UNK d   0      32.425  -5.573  36.573  0.00  0.00     0.143 C 
ATOM     57  O   UNK d   0      31.445  -5.349  35.836  0.00  0.00    -0.650 OA
BRANCH  56  58
ATOM     58  O   UNK d   0      33.711  -5.314  36.102  0.00  0.00    -0.776 OA
ATOM     59  H   UNK d   0      34.280  -6.157  35.901  0.00  0.00     0.167 HD
ENDBRANCH  56  58
ENDBRANCH  55  56
ENDBRANCH  21  55
BRANCH  18  60
ATOM     60  C   UNK d   0      35.020  -8.318  41.995  0.00  0.00     0.151 C 
BRANCH  60  61
ATOM     61  C   UNK d   0      33.731  -8.566  42.658  0.00  0.00     0.143 C 
ATOM     62  O   UNK d   0      33.196  -9.657  42.855  0.00  0.00    -0.650 OA
BRANCH  61  63
ATOM     63  O   UNK d   0      33.053  -7.408  43.109  0.00  0.00    -0.776 OA
ATOM     64  H   UNK d   0      33.412  -6.862  43.872  0.00  0.00     0.167 HD
ENDBRANCH  61  63
ENDBRANCH  60  61
ENDBRANCH  18  60
BRANCH  14  65
ATOM     65  C   UNK d   0      36.704  -7.532  44.394  0.00  0.00     0.052 C 
BRANCH  65  66
ATOM     66  C   UNK d   0      36.094  -7.480  45.750  0.00  0.00     0.115 C 
BRANCH  66  67
ATOM     67  C   UNK d   0      34.837  -8.130  45.990  0.00  0.00     0.139 C 
ATOM     68  O   UNK d   0      33.767  -7.416  45.992  0.00  0.00    -0.650 OA
BRANCH  67  69
ATOM     69  O   UNK d   0      34.609  -9.484  46.233  0.00  0.00    -0.776 OA
ATOM     70  H   UNK d   0      33.700  -9.849  45.914  0.00  0.00     0.167 HD
ENDBRANCH  67  69
ENDBRANCH  66  67
ENDBRANCH  65  66
ENDBRANCH  14  65
ENDBRANCH   6   7
ENDBRANCH   5   6
ENDBRANCH   2   5
TORSDOF 28
ENDMDL
MODEL 11
REMARK VINA RESULT:      -8.3      1.702      2.683
REMARK  28 active torsions:
REMARK  status: ('A' for Active; 'I' for Inactive)
REMARK    1  A    between atoms: C_2  and  O_3 
REMARK    2  A    between atoms: C_2  and  C_4 
REMARK    3  A    between atoms: C_4  and  C_5 
REMARK    4  A    between atoms: C_5  and  C_6 
REMARK    5  A    between atoms: C_7  and  C_8 
REMARK    6  A    between atoms: C_8  and  C_9 
REMARK    7  A    between atoms: C_9  and  O_11 
REMARK    8  A    between atoms: C_28  and  C_29 
REMARK    9  A    between atoms: C_29  and  C_30 
REMARK   10  A    between atoms: C_30  and  O_32 
REMARK   11  A    between atoms: C_33  and  C_34 
REMARK   12  A    between atoms: C_34  and  C_35 
REMARK   13  A    between atoms: C_35  and  C_36 
REMARK   14  A    between atoms: C_36  and  O_38 
REMARK   15  A    between atoms: C_39  and  C_40 
REMARK   16  A    between atoms: C_40  and  C_41 
REMARK   17  A    between atoms: C_41  and  C_42 
REMARK   18  A    between atoms: C_42  and  O_44 
REMARK   19  A    between atoms: C_45  and  C_46 
REMARK   20  A    between atoms: C_46  and  C_47 
REMARK   21  A    between atoms: C_47  and  O_49 
REMARK   22  A    between atoms: C_50  and  C_51 
REMARK   23  A    between atoms: C_51  and  C_52 
REMARK   24  A    between atoms: C_52  and  O_54 
REMARK   25  A    between atoms: C_55  and  C_56 
REMARK   26  A    between atoms: C_56  and  C_57 
REMARK   27  A    between atoms: C_57  and  C_58 
REMARK   28  A    between atoms: C_58  and  O_60 
ROOT
ATOM      1  O   UNK d   0      35.794   3.272  47.700  0.00  0.00    -0.650 OA
ATOM      2  C   UNK d   0      35.555   2.068  47.460  0.00  0.00     0.139 C 
ENDROOT
BRANCH   2   3
ATOM      3  O   UNK d   0      36.336   1.098  48.041  0.00  0.00    -0.776 OA
ATOM      4  H   UNK d   0      35.936   0.205  48.337  0.00  0.00     0.167 HD
ENDBRANCH   2   3
BRANCH   2   5
ATOM      5  C   UNK d   0      34.434   1.693  46.552  0.00  0.00     0.115 C 
BRANCH   5   6
ATOM      6  C   UNK d   0      34.577   0.260  46.117  0.00  0.00     0.052 C 
BRANCH   6   7
ATOM      7  C   UNK d   0      33.891  -0.019  44.801  0.00  0.00    -0.020 A 
ATOM      8  C   UNK d   0      33.165   0.805  44.089  0.00  0.00    -0.011 A 
ATOM      9  C   UNK d   0      32.709   0.089  42.909  0.00  0.00     0.067 A 
ATOM     10  C   UNK d   0      31.939   0.393  41.775  0.00  0.00     0.062 C 
ATOM     11  N   UNK d   0      33.199  -1.166  42.987  0.00  0.00    -0.248 NA
ATOM     12  C   UNK d   0      31.836  -0.354  40.596  0.00  0.00     0.041 A 
ATOM     13  N   UNK d   0      31.710  -1.679  40.395  0.00  0.00    -0.355 N 
ATOM     14  C   UNK d   0      31.923   0.311  39.360  0.00  0.00    -0.022 A 
ATOM     15  C   UNK d   0      31.723  -1.873  39.063  0.00  0.00     0.042 A 
ATOM     16  H   UNK d   0      31.595  -2.460  41.178  0.00  0.00     0.166 HD
ATOM     17  C   UNK d   0      31.622  -3.061  38.312  0.00  0.00     0.062 C 
ATOM     18  C   UNK d   0      31.856  -0.648  38.380  0.00  0.00    -0.013 A 
ATOM     19  C   UNK d   0      32.251  -4.263  38.511  0.00  0.00     0.067 A 
ATOM     20  N   UNK d   0      32.898  -4.423  39.669  0.00  0.00    -0.248 NA
ATOM     21  C   UNK d   0      32.430  -5.488  37.749  0.00  0.00    -0.011 A 
ATOM     22  C   UNK d   0      33.487  -5.663  39.718  0.00  0.00     0.066 A 
ATOM     23  C   UNK d   0      34.164  -5.977  40.887  0.00  0.00     0.062 C 
ATOM     24  C   UNK d   0      33.157  -6.301  38.459  0.00  0.00    -0.020 A 
ATOM     25  C   UNK d   0      34.245  -5.218  42.065  0.00  0.00     0.041 A 
ATOM     26  N   UNK d   0      34.385  -3.902  42.266  0.00  0.00    -0.355 N 
ATOM     27  C   UNK d   0      34.153  -5.886  43.306  0.00  0.00    -0.022 A 
ATOM     28  C   UNK d   0      34.381  -3.707  43.594  0.00  0.00     0.042 A 
ATOM     29  H   UNK d   0      34.512  -3.120  41.477  0.00  0.00     0.166 HD
ATOM     30  C   UNK d   0      34.490  -2.533  44.354  0.00  0.00     0.062 C 
ATOM     31  C   UNK d   0      34.237  -4.937  44.278  0.00  0.00    -0.013 A 
ATOM     32  C   UNK d   0      33.920  -1.295  44.102  0.00  0.00     0.066 A 
BRANCH   8  33
ATOM     33  C   UNK d   0      32.849   2.209  44.409  0.00  0.00     0.151 C 
BRANCH  33  34
ATOM     34  C   UNK d   0      31.405   2.498  44.341  0.00  0.00     0.143 C 
ATOM     35  O   UNK d   0      30.948   3.258  43.475  0.00  0.00    -0.650 OA
BRANCH  34  36
ATOM     36  O   UNK d   0      30.556   1.916  45.254  0.00  0.00    -0.776 OA
ATOM     37  H   UNK d   0      29.544   2.105  45.238  0.00  0.00     0.167 HD
ENDBRANCH  34  36
ENDBRANCH  33  34
ENDBRANCH   8  33
BRANCH  31  38
ATOM     38  C   UNK d   0      34.173  -5.180  45.768  0.00  0.00     0.151 C 
BRANCH  38  39
ATOM     39  C   UNK d   0      35.481  -5.272  46.380  0.00  0.00     0.143 C 
ATOM     40  O   UNK d   0      35.698  -4.903  47.547  0.00  0.00    -0.650 OA
BRANCH  39  41
ATOM     41  O   UNK d   0      36.547  -5.793  45.645  0.00  0.00    -0.776 OA
ATOM     42  H   UNK d   0      37.450  -5.859  46.125  0.00  0.00     0.167 HD
ENDBRANCH  39  41
ENDBRANCH  38  39
ENDBRANCH  31  38
BRANCH  27  43
ATOM     43  C   UNK d   0      33.993  -7.358  43.593  0.00  0.00     0.052 C 
BRANCH  43  44
ATOM     44  C   UNK d   0      32.566  -7.790  43.689  0.00  0.00     0.115 C 
BRANCH  44  45
ATOM     45  C   UNK d   0      32.415  -8.470  45.001  0.00  0.00     0.139 C 
ATOM     46  O   UNK d   0      31.964  -7.803  45.965  0.00  0.00    -0.650 OA
BRANCH  45  47
ATOM     47  O   UNK d   0      32.743  -9.794  45.199  0.00  0.00    -0.776 OA
ATOM     48  H   UNK d   0      32.251 -10.398  45.877  0.00  0.00     0.167 HD
ENDBRANCH  45  47
ENDBRANCH  44  45
ENDBRANCH  43  44
ENDBRANCH  27  43
BRANCH  24  49
ATOM     49  C   UNK d   0      33.549  -7.670  38.082  0.00  0.00     0.052 C 
BRANCH  49  50
ATOM     50  C   UNK d   0      34.624  -7.637  37.027  0.00  0.00     0.115 C 
BRANCH  50  51
ATOM     51  C   UNK d   0      35.937  -7.152  37.430  0.00  0.00     0.139 C 
ATOM     52  O   UNK d   0      36.629  -6.395  36.709  0.00  0.00    -0.650 OA
BRANCH  51  53
ATOM     53  O   UNK d   0      36.462  -7.533  38.655  0.00  0.00    -0.776 OA
ATOM     54  H   UNK d   0      37.417  -7.292  38.859  0.00  0.00     0.167 HD
ENDBRANCH  51  53
ENDBRANCH  50  51
ENDBRANCH  49  50
ENDBRANCH  24  49
BRANCH  21  55
ATOM     55  C   UNK d   0      31.851  -5.719  36.392  0.00  0.00     0.151 C 
BRANCH  55  56
ATOM     56  C   UNK d   0      30.380  -5.700  36.410  0.00  0.00     0.143 C 
ATOM     57  O   UNK d   0      29.701  -6.558  37.006  0.00  0.00    -0.650 OA
BRANCH  56  58
ATOM     58  O   UNK d   0      29.737  -4.670  35.725  0.00  0.00    -0.776 OA
ATOM     59  H   UNK d   0      28.786  -4.445  36.069  0.00  0.00     0.167 HD
ENDBRANCH  56  58
ENDBRANCH  55  56
ENDBRANCH  21  55
BRANCH  18  60
ATOM     60  C   UNK d   0      31.920  -0.376  36.898  0.00  0.00     0.151 C 
BRANCH  60  61
ATOM     61  C   UNK d   0      30.580  -0.680  36.373  0.00  0.00     0.143 C 
ATOM     62  O   UNK d   0      29.541  -0.811  37.021  0.00  0.00    -0.650 OA
BRANCH  61  63
ATOM     63  O   UNK d   0      30.504  -0.833  34.968  0.00  0.00    -0.776 OA
ATOM     64  H   UNK d   0      30.626  -0.048  34.353  0.00  0.00     0.167 HD
ENDBRANCH  61  63
ENDBRANCH  60  61
ENDBRANCH  18  60
BRANCH  14  65
ATOM     65  C   UNK d   0      31.966   1.777  39.035  0.00  0.00     0.052 C 
BRANCH  65  66
ATOM     66  C   UNK d   0      33.304   2.385  39.265  0.00  0.00     0.115 C 
BRANCH  66  67
ATOM     67  C   UNK d   0      33.460   3.811  39.194  0.00  0.00     0.139 C 
ATOM     68  O   UNK d   0      34.375   4.290  38.428  0.00  0.00    -0.650 OA
BRANCH  67  69
ATOM     69  O   UNK d   0      32.726   4.785  39.869  0.00  0.00    -0.776 OA
ATOM     70  H   UNK d   0      33.102   5.076  40.783  0.00  0.00     0.167 HD
ENDBRANCH  67  69
ENDBRANCH  66  67
ENDBRANCH  65  66
ENDBRANCH  14  65
ENDBRANCH   6   7
ENDBRANCH   5   6
ENDBRANCH   2   5
TORSDOF 28
ENDMDL
MODEL 12
REMARK VINA RESULT:      -8.1     29.148     32.767
REMARK  28 active torsions:
REMARK  status: ('A' for Active; 'I' for Inactive)
REMARK    1  A    between atoms: C_2  and  O_3 
REMARK    2  A    between atoms: C_2  and  C_4 
REMARK    3  A    between atoms: C_4  and  C_5 
REMARK    4  A    between atoms: C_5  and  C_6 
REMARK    5  A    between atoms: C_7  and  C_8 
REMARK    6  A    between atoms: C_8  and  C_9 
REMARK    7  A    between atoms: C_9  and  O_11 
REMARK    8  A    between atoms: C_28  and  C_29 
REMARK    9  A    between atoms: C_29  and  C_30 
REMARK   10  A    between atoms: C_30  and  O_32 
REMARK   11  A    between atoms: C_33  and  C_34 
REMARK   12  A    between atoms: C_34  and  C_35 
REMARK   13  A    between atoms: C_35  and  C_36 
REMARK   14  A    between atoms: C_36  and  O_38 
REMARK   15  A    between atoms: C_39  and  C_40 
REMARK   16  A    between atoms: C_40  and  C_41 
REMARK   17  A    between atoms: C_41  and  C_42 
REMARK   18  A    between atoms: C_42  and  O_44 
REMARK   19  A    between atoms: C_45  and  C_46 
REMARK   20  A    between atoms: C_46  and  C_47 
REMARK   21  A    between atoms: C_47  and  O_49 
REMARK   22  A    between atoms: C_50  and  C_51 
REMARK   23  A    between atoms: C_51  and  C_52 
REMARK   24  A    between atoms: C_52  and  O_54 
REMARK   25  A    between atoms: C_55  and  C_56 
REMARK   26  A    between atoms: C_56  and  C_57 
REMARK   27  A    between atoms: C_57  and  C_58 
REMARK   28  A    between atoms: C_58  and  O_60 
ROOT
ATOM      1  O   UNK d   0       3.301  12.387  41.994  0.00  0.00    -0.650 OA
ATOM      2  C   UNK d   0       3.331  11.947  40.823  0.00  0.00     0.139 C 
ENDROOT
BRANCH   2   3
ATOM      3  O   UNK d   0       4.520  11.951  40.133  0.00  0.00    -0.776 OA
ATOM      4  H   UNK d   0       4.563  12.259  39.159  0.00  0.00     0.167 HD
ENDBRANCH   2   3
BRANCH   2   5
ATOM      5  C   UNK d   0       2.089  11.425  40.187  0.00  0.00     0.115 C 
BRANCH   5   6
ATOM      6  C   UNK d   0       2.437  10.478  39.071  0.00  0.00     0.052 C 
BRANCH   6   7
ATOM      7  C   UNK d   0       2.128   9.039  39.412  0.00  0.00    -0.020 A 
ATOM      8  C   UNK d   0       1.329   8.222  38.775  0.00  0.00    -0.011 A 
ATOM      9  C   UNK d   0       1.345   6.949  39.476  0.00  0.00     0.067 A 
ATOM     10  C   UNK d   0       0.745   5.692  39.305  0.00  0.00     0.062 C 
ATOM     11  N   UNK d   0       2.176   7.083  40.531  0.00  0.00    -0.248 NA
ATOM     12  C   UNK d   0       1.099   4.492  39.932  0.00  0.00     0.041 A 
ATOM     13  N   UNK d   0       1.429   4.222  41.209  0.00  0.00    -0.355 N 
ATOM     14  C   UNK d   0       1.205   3.324  39.155  0.00  0.00    -0.022 A 
ATOM     15  C   UNK d   0       1.749   2.915  41.261  0.00  0.00     0.042 A 
ATOM     16  H   UNK d   0       1.416   4.937  42.061  0.00  0.00     0.166 HD
ATOM     17  C   UNK d   0       2.162   2.119  42.348  0.00  0.00     0.062 C 
ATOM     18  C   UNK d   0       1.621   2.319  39.992  0.00  0.00    -0.013 A 
ATOM     19  C   UNK d   0       3.083   2.402  43.323  0.00  0.00     0.067 A 
ATOM     20  N   UNK d   0       3.520   3.662  43.396  0.00  0.00    -0.248 NA
ATOM     21  C   UNK d   0       3.770   1.651  44.361  0.00  0.00    -0.011 A 
ATOM     22  C   UNK d   0       4.443   3.789  44.404  0.00  0.00     0.066 A 
ATOM     23  C   UNK d   0       4.954   5.061  44.616  0.00  0.00     0.062 C 
ATOM     24  C   UNK d   0       4.568   2.467  44.987  0.00  0.00    -0.020 A 
ATOM     25  C   UNK d   0       4.575   6.256  43.984  0.00  0.00     0.041 A 
ATOM     26  N   UNK d   0       4.262   6.527  42.712  0.00  0.00    -0.355 N 
ATOM     27  C   UNK d   0       4.465   7.427  44.766  0.00  0.00    -0.022 A 
ATOM     28  C   UNK d   0       3.951   7.832  42.656  0.00  0.00     0.042 A 
ATOM     29  H   UNK d   0       4.285   5.810  41.854  0.00  0.00     0.166 HD
ATOM     30  C   UNK d   0       3.547   8.639  41.580  0.00  0.00     0.062 C 
ATOM     31  C   UNK d   0       4.069   8.428  43.933  0.00  0.00    -0.013 A 
ATOM     32  C   UNK d   0       2.680   8.317  40.548  0.00  0.00     0.066 A 
BRANCH   8  33
ATOM     33  C   UNK d   0       0.540   8.519  37.565  0.00  0.00     0.151 C 
BRANCH  33  34
ATOM     34  C   UNK d   0       1.278   8.239  36.320  0.00  0.00     0.143 C 
ATOM     35  O   UNK d   0       0.915   7.335  35.554  0.00  0.00    -0.650 OA
BRANCH  34  36
ATOM     36  O   UNK d   0       2.386   8.993  36.008  0.00  0.00    -0.776 OA
ATOM     37  H   UNK d   0       2.352   9.713  35.273  0.00  0.00     0.167 HD
ENDBRANCH  34  36
ENDBRANCH  33  34
ENDBRANCH   8  33
BRANCH  31  38
ATOM     38  C   UNK d   0       3.806   9.863  44.327  0.00  0.00     0.151 C 
BRANCH  38  39
ATOM     39  C   UNK d   0       2.423  10.105  44.678  0.00  0.00     0.143 C 
ATOM     40  O   UNK d   0       1.896   9.607  45.688  0.00  0.00    -0.650 OA
BRANCH  39  41
ATOM     41  O   UNK d   0       1.641  10.923  43.863  0.00  0.00    -0.776 OA
ATOM     42  H   UNK d   0       1.705  10.764  42.852  0.00  0.00     0.167 HD
ENDBRANCH  39  41
ENDBRANCH  38  39
ENDBRANCH  31  38
BRANCH  27  43
ATOM     43  C   UNK d   0       4.717   7.623  46.240  0.00  0.00     0.052 C 
BRANCH  43  44
ATOM     44  C   UNK d   0       6.039   8.255  46.534  0.00  0.00     0.115 C 
BRANCH  44  45
ATOM     45  C   UNK d   0       6.651   7.467  47.635  0.00  0.00     0.139 C 
ATOM     46  O   UNK d   0       7.904   7.416  47.701  0.00  0.00    -0.650 OA
BRANCH  45  47
ATOM     47  O   UNK d   0       5.904   6.800  48.581  0.00  0.00    -0.776 OA
ATOM     48  H   UNK d   0       4.881   6.914  48.670  0.00  0.00     0.167 HD
ENDBRANCH  45  47
ENDBRANCH  44  45
ENDBRANCH  43  44
ENDBRANCH  27  43
BRANCH  24  49
ATOM     49  C   UNK d   0       5.426   2.132  46.136  0.00  0.00     0.052 C 
BRANCH  49  50
ATOM     50  C   UNK d   0       4.709   2.424  47.429  0.00  0.00     0.115 C 
BRANCH  50  51
ATOM     51  C   UNK d   0       5.238   3.502  48.254  0.00  0.00     0.139 C 
ATOM     52  O   UNK d   0       4.505   4.238  48.956  0.00  0.00    -0.650 OA
BRANCH  51  53
ATOM     53  O   UNK d   0       6.603   3.742  48.277  0.00  0.00    -0.776 OA
ATOM     54  H   UNK d   0       6.968   4.346  48.992  0.00  0.00     0.167 HD
ENDBRANCH  51  53
ENDBRANCH  50  51
ENDBRANCH  49  50
ENDBRANCH  24  49
BRANCH  21  55
ATOM     55  C   UNK d   0       3.555   0.197  44.621  0.00  0.00     0.151 C 
BRANCH  55  56
ATOM     56  C   UNK d   0       4.201  -0.647  43.604  0.00  0.00     0.143 C 
ATOM     57  O   UNK d   0       5.023  -1.539  43.891  0.00  0.00    -0.650 OA
BRANCH  56  58
ATOM     58  O   UNK d   0       3.867  -0.425  42.269  0.00  0.00    -0.776 OA
ATOM     59  H   UNK d   0       4.104  -1.202  41.625  0.00  0.00     0.167 HD
ENDBRANCH  56  58
ENDBRANCH  55  56
ENDBRANCH  21  55
BRANCH  18  60
ATOM     60  C   UNK d   0       1.873   0.892  39.571  0.00  0.00     0.151 C 
BRANCH  60  61
ATOM     61  C   UNK d   0       0.821   0.090  40.214  0.00  0.00     0.143 C 
ATOM     62  O   UNK d   0       0.977  -0.855  40.988  0.00  0.00    -0.650 OA
BRANCH  61  63
ATOM     63  O   UNK d   0      -0.505   0.466  39.891  0.00  0.00    -0.776 OA
ATOM     64  H   UNK d   0      -1.020   1.101  40.474  0.00  0.00     0.167 HD
ENDBRANCH  61  63
ENDBRANCH  60  61
ENDBRANCH  18  60
BRANCH  14  65
ATOM     65  C   UNK d   0       0.852   3.067  37.717  0.00  0.00     0.052 C 
BRANCH  65  66
ATOM     66  C   UNK d   0       2.036   3.079  36.817  0.00  0.00     0.115 C 
BRANCH  66  67
ATOM     67  C   UNK d   0       2.413   1.880  36.121  0.00  0.00     0.139 C 
ATOM     68  O   UNK d   0       1.613   0.875  36.153  0.00  0.00    -0.650 OA
BRANCH  67  69
ATOM     69  O   UNK d   0       3.577   1.650  35.388  0.00  0.00    -0.776 OA
ATOM     70  H   UNK d   0       4.460   1.729  35.912  0.00  0.00     0.167 HD
ENDBRANCH  67  69
ENDBRANCH  66  67
ENDBRANCH  65  66
ENDBRANCH  14  65
ENDBRANCH   6   7
ENDBRANCH   5   6
ENDBRANCH   2   5
TORSDOF 28
ENDMDL
MODEL 13
REMARK VINA RESULT:      -8.1     29.219     32.597
REMARK  28 active torsions:
REMARK  status: ('A' for Active; 'I' for Inactive)
REMARK    1  A    between atoms: C_2  and  O_3 
REMARK    2  A    between atoms: C_2  and  C_4 
REMARK    3  A    between atoms: C_4  and  C_5 
REMARK    4  A    between atoms: C_5  and  C_6 
REMARK    5  A    between atoms: C_7  and  C_8 
REMARK    6  A    between atoms: C_8  and  C_9 
REMARK    7  A    between atoms: C_9  and  O_11 
REMARK    8  A    between atoms: C_28  and  C_29 
REMARK    9  A    between atoms: C_29  and  C_30 
REMARK   10  A    between atoms: C_30  and  O_32 
REMARK   11  A    between atoms: C_33  and  C_34 
REMARK   12  A    between atoms: C_34  and  C_35 
REMARK   13  A    between atoms: C_35  and  C_36 
REMARK   14  A    between atoms: C_36  and  O_38 
REMARK   15  A    between atoms: C_39  and  C_40 
REMARK   16  A    between atoms: C_40  and  C_41 
REMARK   17  A    between atoms: C_41  and  C_42 
REMARK   18  A    between atoms: C_42  and  O_44 
REMARK   19  A    between atoms: C_45  and  C_46 
REMARK   20  A    between atoms: C_46  and  C_47 
REMARK   21  A    between atoms: C_47  and  O_49 
REMARK   22  A    between atoms: C_50  and  C_51 
REMARK   23  A    between atoms: C_51  and  C_52 
REMARK   24  A    between atoms: C_52  and  O_54 
REMARK   25  A    between atoms: C_55  and  C_56 
REMARK   26  A    between atoms: C_56  and  C_57 
REMARK   27  A    between atoms: C_57  and  C_58 
REMARK   28  A    between atoms: C_58  and  O_60 
ROOT
ATOM      1  O   UNK d   0       2.353   8.570  35.685  0.00  0.00    -0.650 OA
ATOM      2  C   UNK d   0       1.542   8.827  36.602  0.00  0.00     0.139 C 
ENDROOT
BRANCH   2   3
ATOM      3  O   UNK d   0       1.270  10.137  36.914  0.00  0.00    -0.776 OA
ATOM      4  H   UNK d   0       0.518  10.380  37.561  0.00  0.00     0.167 HD
ENDBRANCH   2   3
BRANCH   2   5
ATOM      5  C   UNK d   0       0.878   7.719  37.346  0.00  0.00     0.115 C 
BRANCH   5   6
ATOM      6  C   UNK d   0       0.324   8.229  38.648  0.00  0.00     0.052 C 
BRANCH   6   7
ATOM      7  C   UNK d   0       1.261   7.996  39.809  0.00  0.00    -0.020 A 
ATOM      8  C   UNK d   0       1.936   8.892  40.483  0.00  0.00    -0.011 A 
ATOM      9  C   UNK d   0       2.706   8.197  41.501  0.00  0.00     0.067 A 
ATOM     10  C   UNK d   0       3.588   8.564  42.529  0.00  0.00     0.062 C 
ATOM     11  N   UNK d   0       2.445   6.879  41.371  0.00  0.00    -0.248 NA
ATOM     12  C   UNK d   0       4.022   7.769  43.596  0.00  0.00     0.041 A 
ATOM     13  N   UNK d   0       4.418   6.483  43.640  0.00  0.00    -0.355 N 
ATOM     14  C   UNK d   0       4.025   8.314  44.893  0.00  0.00    -0.022 A 
ATOM     15  C   UNK d   0       4.665   6.196  44.932  0.00  0.00     0.042 A 
ATOM     16  H   UNK d   0       4.539   5.797  42.773  0.00  0.00     0.166 HD
ATOM     17  C   UNK d   0       5.104   5.000  45.534  0.00  0.00     0.062 C 
ATOM     18  C   UNK d   0       4.430   7.319  45.748  0.00  0.00    -0.013 A 
ATOM     19  C   UNK d   0       4.678   3.715  45.311  0.00  0.00     0.067 A 
ATOM     20  N   UNK d   0       3.886   3.515  44.255  0.00  0.00    -0.248 NA
ATOM     21  C   UNK d   0       4.855   2.428  45.963  0.00  0.00    -0.011 A 
ATOM     22  C   UNK d   0       3.531   2.191  44.169  0.00  0.00     0.066 A 
ATOM     23  C   UNK d   0       2.735   1.835  43.091  0.00  0.00     0.062 C 
ATOM     24  C   UNK d   0       4.178   1.541  45.292  0.00  0.00    -0.020 A 
ATOM     25  C   UNK d   0       2.320   2.646  42.022  0.00  0.00     0.041 A 
ATOM     26  N   UNK d   0       1.913   3.920  41.981  0.00  0.00    -0.355 N 
ATOM     27  C   UNK d   0       2.321   2.099  40.720  0.00  0.00    -0.022 A 
ATOM     28  C   UNK d   0       1.657   4.206  40.694  0.00  0.00     0.042 A 
ATOM     29  H   UNK d   0       1.781   4.604  42.855  0.00  0.00     0.166 HD
ATOM     30  C   UNK d   0       1.211   5.388  40.083  0.00  0.00     0.062 C 
ATOM     31  C   UNK d   0       1.904   3.080  39.874  0.00  0.00    -0.013 A 
ATOM     32  C   UNK d   0       1.582   6.692  40.371  0.00  0.00     0.066 A 
BRANCH   8  33
ATOM     33  C   UNK d   0       1.934  10.350  40.263  0.00  0.00     0.151 C 
BRANCH  33  34
ATOM     34  C   UNK d   0       1.059  11.069  41.206  0.00  0.00     0.143 C 
ATOM     35  O   UNK d   0      -0.068  10.634  41.487  0.00  0.00    -0.650 OA
BRANCH  34  36
ATOM     36  O   UNK d   0       1.500  12.238  41.780  0.00  0.00    -0.776 OA
ATOM     37  H   UNK d   0       2.481  12.356  42.067  0.00  0.00     0.167 HD
ENDBRANCH  34  36
ENDBRANCH  33  34
ENDBRANCH   8  33
BRANCH  31  38
ATOM     38  C   UNK d   0       1.759   2.961  38.375  0.00  0.00     0.151 C 
BRANCH  38  39
ATOM     39  C   UNK d   0       0.404   3.194  37.921  0.00  0.00     0.143 C 
ATOM     40  O   UNK d   0       0.140   3.963  36.981  0.00  0.00    -0.650 OA
BRANCH  39  41
ATOM     41  O   UNK d   0      -0.652   2.537  38.551  0.00  0.00    -0.776 OA
ATOM     42  H   UNK d   0      -0.645   2.528  39.576  0.00  0.00     0.167 HD
ENDBRANCH  39  41
ENDBRANCH  38  39
ENDBRANCH  31  38
BRANCH  27  43
ATOM     43  C   UNK d   0       2.694   0.711  40.264  0.00  0.00     0.052 C 
BRANCH  43  44
ATOM     44  C   UNK d   0       1.567  -0.018  39.607  0.00  0.00     0.115 C 
BRANCH  44  45
ATOM     45  C   UNK d   0       0.575  -0.315  40.673  0.00  0.00     0.139 C 
ATOM     46  O   UNK d   0      -0.522   0.296  40.647  0.00  0.00    -0.650 OA
BRANCH  45  47
ATOM     47  O   UNK d   0       0.807  -1.231  41.676  0.00  0.00    -0.776 OA
ATOM     48  H   UNK d   0       1.720  -1.324  42.149  0.00  0.00     0.167 HD
ENDBRANCH  45  47
ENDBRANCH  44  45
ENDBRANCH  43  44
ENDBRANCH  27  43
BRANCH  24  49
ATOM     49  C   UNK d   0       4.110   0.099  45.582  0.00  0.00     0.052 C 
BRANCH  49  50
ATOM     50  C   UNK d   0       4.646  -0.696  44.419  0.00  0.00     0.115 C 
BRANCH  50  51
ATOM     51  C   UNK d   0       4.133  -2.048  44.245  0.00  0.00     0.139 C 
ATOM     52  O   UNK d   0       4.397  -2.979  45.042  0.00  0.00    -0.650 OA
BRANCH  51  53
ATOM     53  O   UNK d   0       3.321  -2.341  43.160  0.00  0.00    -0.776 OA
ATOM     54  H   UNK d   0       3.249  -3.298  42.865  0.00  0.00     0.167 HD
ENDBRANCH  51  53
ENDBRANCH  50  51
ENDBRANCH  49  50
ENDBRANCH  24  49
BRANCH  21  55
ATOM     55  C   UNK d   0       5.687   2.218  47.185  0.00  0.00     0.151 C 
BRANCH  55  56
ATOM     56  C   UNK d   0       5.439   3.249  48.204  0.00  0.00     0.143 C 
ATOM     57  O   UNK d   0       4.308   3.472  48.677  0.00  0.00    -0.650 OA
BRANCH  56  58
ATOM     58  O   UNK d   0       6.528   3.997  48.648  0.00  0.00    -0.776 OA
ATOM     59  H   UNK d   0       6.683   4.886  48.138  0.00  0.00     0.167 HD
ENDBRANCH  56  58
ENDBRANCH  55  56
ENDBRANCH  21  55
BRANCH  18  60
ATOM     60  C   UNK d   0       4.568   7.467  47.243  0.00  0.00     0.151 C 
BRANCH  60  61
ATOM     61  C   UNK d   0       6.013   7.470  47.516  0.00  0.00     0.143 C 
ATOM     62  O   UNK d   0       6.602   6.855  48.406  0.00  0.00    -0.650 OA
BRANCH  61  63
ATOM     63  O   UNK d   0       6.789   8.275  46.648  0.00  0.00    -0.776 OA
ATOM     64  H   UNK d   0       6.941   9.249  46.841  0.00  0.00     0.167 HD
ENDBRANCH  61  63
ENDBRANCH  60  61
ENDBRANCH  18  60
BRANCH  14  65
ATOM     65  C   UNK d   0       3.773   9.717  45.368  0.00  0.00     0.052 C 
BRANCH  65  66
ATOM     66  C   UNK d   0       4.739  10.702  44.811  0.00  0.00     0.115 C 
BRANCH  66  67
ATOM     67  C   UNK d   0       4.312  12.049  44.552  0.00  0.00     0.139 C 
ATOM     68  O   UNK d   0       3.962  12.362  43.356  0.00  0.00    -0.650 OA
BRANCH  67  69
ATOM     69  O   UNK d   0       4.224  13.105  45.459  0.00  0.00    -0.776 OA
ATOM     70  H   UNK d   0       3.856  12.865  46.391  0.00  0.00     0.167 HD
ENDBRANCH  67  69
ENDBRANCH  66  67
ENDBRANCH  65  66
ENDBRANCH  14  65
ENDBRANCH   6   7
ENDBRANCH   5   6
ENDBRANCH   2   5
TORSDOF 28
ENDMDL
MODEL 14
REMARK VINA RESULT:      -7.8      1.777      7.773
REMARK  28 active torsions:
REMARK  status: ('A' for Active; 'I' for Inactive)
REMARK    1  A    between atoms: C_2  and  O_3 
REMARK    2  A    between atoms: C_2  and  C_4 
REMARK    3  A    between atoms: C_4  and  C_5 
REMARK    4  A    between atoms: C_5  and  C_6 
REMARK    5  A    between atoms: C_7  and  C_8 
REMARK    6  A    between atoms: C_8  and  C_9 
REMARK    7  A    between atoms: C_9  and  O_11 
REMARK    8  A    between atoms: C_28  and  C_29 
REMARK    9  A    between atoms: C_29  and  C_30 
REMARK   10  A    between atoms: C_30  and  O_32 
REMARK   11  A    between atoms: C_33  and  C_34 
REMARK   12  A    between atoms: C_34  and  C_35 
REMARK   13  A    between atoms: C_35  and  C_36 
REMARK   14  A    between atoms: C_36  and  O_38 
REMARK   15  A    between atoms: C_39  and  C_40 
REMARK   16  A    between atoms: C_40  and  C_41 
REMARK   17  A    between atoms: C_41  and  C_42 
REMARK   18  A    between atoms: C_42  and  O_44 
REMARK   19  A    between atoms: C_45  and  C_46 
REMARK   20  A    between atoms: C_46  and  C_47 
REMARK   21  A    between atoms: C_47  and  O_49 
REMARK   22  A    between atoms: C_50  and  C_51 
REMARK   23  A    between atoms: C_51  and  C_52 
REMARK   24  A    between atoms: C_52  and  O_54 
REMARK   25  A    between atoms: C_55  and  C_56 
REMARK   26  A    between atoms: C_56  and  C_57 
REMARK   27  A    between atoms: C_57  and  C_58 
REMARK   28  A    between atoms: C_58  and  O_60 
ROOT
ATOM      1  O   UNK d   0      35.917   4.379  46.271  0.00  0.00    -0.650 OA
ATOM      2  C   UNK d   0      35.395   3.300  46.631  0.00  0.00     0.139 C 
ENDROOT
BRANCH   2   3
ATOM      3  O   UNK d   0      35.731   2.764  47.851  0.00  0.00    -0.776 OA
ATOM      4  H   UNK d   0      35.359   3.155  48.720  0.00  0.00     0.167 HD
ENDBRANCH   2   3
BRANCH   2   5
ATOM      5  C   UNK d   0      34.421   2.606  45.743  0.00  0.00     0.115 C 
BRANCH   5   6
ATOM      6  C   UNK d   0      33.803   1.439  46.463  0.00  0.00     0.052 C 
BRANCH   6   7
ATOM      7  C   UNK d   0      34.100   0.119  45.792  0.00  0.00    -0.020 A 
ATOM      8  C   UNK d   0      34.767  -0.894  46.283  0.00  0.00    -0.011 A 
ATOM      9  C   UNK d   0      34.801  -1.936  45.271  0.00  0.00     0.067 A 
ATOM     10  C   UNK d   0      35.321  -3.237  45.175  0.00  0.00     0.062 C 
ATOM     11  N   UNK d   0      34.135  -1.471  44.194  0.00  0.00    -0.248 NA
ATOM     12  C   UNK d   0      35.012  -4.203  44.211  0.00  0.00     0.041 A 
ATOM     13  N   UNK d   0      34.857  -4.106  42.876  0.00  0.00    -0.355 N 
ATOM     14  C   UNK d   0      34.751  -5.521  44.627  0.00  0.00    -0.022 A 
ATOM     15  C   UNK d   0      34.496  -5.326  42.437  0.00  0.00     0.042 A 
ATOM     16  H   UNK d   0      35.019  -3.198  42.255  0.00  0.00     0.166 HD
ATOM     17  C   UNK d   0      34.211  -5.781  41.134  0.00  0.00     0.062 C 
ATOM     18  C   UNK d   0      34.419  -6.240  43.506  0.00  0.00    -0.013 A 
ATOM     19  C   UNK d   0      33.450  -5.185  40.161  0.00  0.00     0.067 A 
ATOM     20  N   UNK d   0      33.078  -3.920  40.373  0.00  0.00    -0.248 NA
ATOM     21  C   UNK d   0      32.888  -5.587  38.882  0.00  0.00    -0.011 A 
ATOM     22  C   UNK d   0      32.313  -3.466  39.327  0.00  0.00     0.066 A 
ATOM     23  C   UNK d   0      31.889  -2.148  39.400  0.00  0.00     0.062 C 
ATOM     24  C   UNK d   0      32.221  -4.578  38.401  0.00  0.00    -0.020 A 
ATOM     25  C   UNK d   0      32.220  -1.190  40.370  0.00  0.00     0.041 A 
ATOM     26  N   UNK d   0      32.360  -1.283  41.698  0.00  0.00    -0.355 N 
ATOM     27  C   UNK d   0      32.487   0.132  39.951  0.00  0.00    -0.022 A 
ATOM     28  C   UNK d   0      32.711  -0.065  42.140  0.00  0.00     0.042 A 
ATOM     29  H   UNK d   0      32.187  -2.194  42.322  0.00  0.00     0.166 HD
ATOM     30  C   UNK d   0      32.989   0.403  43.434  0.00  0.00     0.062 C 
ATOM     31  C   UNK d   0      32.799   0.850  41.064  0.00  0.00    -0.013 A 
ATOM     32  C   UNK d   0      33.687  -0.240  44.444  0.00  0.00     0.066 A 
BRANCH   8  33
ATOM     33  C   UNK d   0      35.387  -0.981  47.618  0.00  0.00     0.151 C 
BRANCH  33  34
ATOM     34  C   UNK d   0      36.824  -0.656  47.603  0.00  0.00     0.143 C 
ATOM     35  O   UNK d   0      37.222   0.483  47.889  0.00  0.00    -0.650 OA
BRANCH  34  36
ATOM     36  O   UNK d   0      37.734  -1.630  47.263  0.00  0.00    -0.776 OA
ATOM     37  H   UNK d   0      37.895  -2.445  47.870  0.00  0.00     0.167 HD
ENDBRANCH  34  36
ENDBRANCH  33  34
ENDBRANCH   8  33
BRANCH  31  38
ATOM     38  C   UNK d   0      33.172   2.314  41.105  0.00  0.00     0.151 C 
BRANCH  38  39
ATOM     39  C   UNK d   0      32.074   3.161  41.518  0.00  0.00     0.143 C 
ATOM     40  O   UNK d   0      31.195   3.546  40.726  0.00  0.00    -0.650 OA
BRANCH  39  41
ATOM     41  O   UNK d   0      31.985   3.569  42.849  0.00  0.00    -0.776 OA
ATOM     42  H   UNK d   0      32.863   3.618  43.376  0.00  0.00     0.167 HD
ENDBRANCH  39  41
ENDBRANCH  38  39
ENDBRANCH  31  38
BRANCH  27  43
ATOM     43  C   UNK d   0      32.454   0.722  38.563  0.00  0.00     0.052 C 
BRANCH  43  44
ATOM     44  C   UNK d   0      33.316   1.934  38.416  0.00  0.00     0.115 C 
BRANCH  44  45
ATOM     45  C   UNK d   0      34.513   1.512  37.644  0.00  0.00     0.139 C 
ATOM     46  O   UNK d   0      35.640   1.641  38.183  0.00  0.00    -0.650 OA
BRANCH  45  47
ATOM     47  O   UNK d   0      34.436   0.985  36.373  0.00  0.00    -0.776 OA
ATOM     48  H   UNK d   0      34.286  -0.021  36.192  0.00  0.00     0.167 HD
ENDBRANCH  45  47
ENDBRANCH  44  45
ENDBRANCH  43  44
ENDBRANCH  27  43
BRANCH  24  49
ATOM     49  C   UNK d   0      31.522  -4.538  37.105  0.00  0.00     0.052 C 
BRANCH  49  50
ATOM     50  C   UNK d   0      30.038  -4.713  37.303  0.00  0.00     0.115 C 
BRANCH  50  51
ATOM     51  C   UNK d   0      29.156  -3.948  36.434  0.00  0.00     0.139 C 
ATOM     52  O   UNK d   0      27.979  -4.301  36.184  0.00  0.00    -0.650 OA
BRANCH  51  53
ATOM     53  O   UNK d   0      29.616  -2.780  35.845  0.00  0.00    -0.776 OA
ATOM     54  H   UNK d   0      29.209  -2.494  34.972  0.00  0.00     0.167 HD
ENDBRANCH  51  53
ENDBRANCH  50  51
ENDBRANCH  49  50
ENDBRANCH  24  49
BRANCH  21  55
ATOM     55  C   UNK d   0      33.081  -6.936  38.272  0.00  0.00     0.151 C 
BRANCH  55  56
ATOM     56  C   UNK d   0      34.365  -7.042  37.563  0.00  0.00     0.143 C 
ATOM     57  O   UNK d   0      35.396  -7.494  38.098  0.00  0.00    -0.650 OA
BRANCH  56  58
ATOM     58  O   UNK d   0      34.411  -6.615  36.237  0.00  0.00    -0.776 OA
ATOM     59  H   UNK d   0      33.510  -6.675  35.728  0.00  0.00     0.167 HD
ENDBRANCH  56  58
ENDBRANCH  55  56
ENDBRANCH  21  55
BRANCH  18  60
ATOM     60  C   UNK d   0      34.053  -7.704  43.495  0.00  0.00     0.151 C 
BRANCH  60  61
ATOM     61  C   UNK d   0      35.231  -8.418  44.012  0.00  0.00     0.143 C 
ATOM     62  O   UNK d   0      35.237  -9.376  44.785  0.00  0.00    -0.650 OA
BRANCH  61  63
ATOM     63  O   UNK d   0      36.479  -7.931  43.555  0.00  0.00    -0.776 OA
ATOM     64  H   UNK d   0      36.715  -6.957  43.630  0.00  0.00     0.167 HD
ENDBRANCH  61  63
ENDBRANCH  60  61
ENDBRANCH  18  60
BRANCH  14  65
ATOM     65  C   UNK d   0      34.885  -6.168  45.977  0.00  0.00     0.052 C 
BRANCH  65  66
ATOM     66  C   UNK d   0      33.619  -6.153  46.757  0.00  0.00     0.115 C 
BRANCH  66  67
ATOM     67  C   UNK d   0      33.665  -6.241  48.190  0.00  0.00     0.139 C 
ATOM     68  O   UNK d   0      34.034  -7.351  48.725  0.00  0.00    -0.650 OA
BRANCH  67  69
ATOM     69  O   UNK d   0      33.351  -5.248  49.116  0.00  0.00    -0.776 OA
ATOM     70  H   UNK d   0      33.769  -5.359  50.051  0.00  0.00     0.167 HD
ENDBRANCH  67  69
ENDBRANCH  66  67
ENDBRANCH  65  66
ENDBRANCH  14  65
ENDBRANCH   6   7
ENDBRANCH   5   6
ENDBRANCH   2   5
TORSDOF 28
ENDMDL
MODEL 15
REMARK VINA RESULT:      -7.7     29.797     33.175
REMARK  28 active torsions:
REMARK  status: ('A' for Active; 'I' for Inactive)
REMARK    1  A    between atoms: C_2  and  O_3 
REMARK    2  A    between atoms: C_2  and  C_4 
REMARK    3  A    between atoms: C_4  and  C_5 
REMARK    4  A    between atoms: C_5  and  C_6 
REMARK    5  A    between atoms: C_7  and  C_8 
REMARK    6  A    between atoms: C_8  and  C_9 
REMARK    7  A    between atoms: C_9  and  O_11 
REMARK    8  A    between atoms: C_28  and  C_29 
REMARK    9  A    between atoms: C_29  and  C_30 
REMARK   10  A    between atoms: C_30  and  O_32 
REMARK   11  A    between atoms: C_33  and  C_34 
REMARK   12  A    between atoms: C_34  and  C_35 
REMARK   13  A    between atoms: C_35  and  C_36 
REMARK   14  A    between atoms: C_36  and  O_38 
REMARK   15  A    between atoms: C_39  and  C_40 
REMARK   16  A    between atoms: C_40  and  C_41 
REMARK   17  A    between atoms: C_41  and  C_42 
REMARK   18  A    between atoms: C_42  and  O_44 
REMARK   19  A    between atoms: C_45  and  C_46 
REMARK   20  A    between atoms: C_46  and  C_47 
REMARK   21  A    between atoms: C_47  and  O_49 
REMARK   22  A    between atoms: C_50  and  C_51 
REMARK   23  A    between atoms: C_51  and  C_52 
REMARK   24  A    between atoms: C_52  and  O_54 
REMARK   25  A    between atoms: C_55  and  C_56 
REMARK   26  A    between atoms: C_56  and  C_57 
REMARK   27  A    between atoms: C_57  and  C_58 
REMARK   28  A    between atoms: C_58  and  O_60 
ROOT
ATOM      1  O   UNK d   0       3.024  13.383  43.956  0.00  0.00    -0.650 OA
ATOM      2  C   UNK d   0       3.723  13.775  44.916  0.00  0.00     0.139 C 
ENDROOT
BRANCH   2   3
ATOM      3  O   UNK d   0       4.148  15.082  44.950  0.00  0.00    -0.776 OA
ATOM      4  H   UNK d   0       4.769  15.416  45.690  0.00  0.00     0.167 HD
ENDBRANCH   2   3
BRANCH   2   5
ATOM      5  C   UNK d   0       4.091  12.832  46.009  0.00  0.00     0.115 C 
BRANCH   5   6
ATOM      6  C   UNK d   0       3.006  11.806  46.194  0.00  0.00     0.052 C 
BRANCH   6   7
ATOM      7  C   UNK d   0       3.409  10.438  45.698  0.00  0.00    -0.020 A 
ATOM      8  C   UNK d   0       4.306   9.635  46.210  0.00  0.00    -0.011 A 
ATOM      9  C   UNK d   0       4.353   8.438  45.388  0.00  0.00     0.067 A 
ATOM     10  C   UNK d   0       5.061   7.226  45.404  0.00  0.00     0.062 C 
ATOM     11  N   UNK d   0       3.455   8.599  44.394  0.00  0.00    -0.248 NA
ATOM     12  C   UNK d   0       4.769   6.065  44.680  0.00  0.00     0.041 A 
ATOM     13  N   UNK d   0       4.390   5.890  43.400  0.00  0.00    -0.355 N 
ATOM     14  C   UNK d   0       4.802   4.824  45.342  0.00  0.00    -0.022 A 
ATOM     15  C   UNK d   0       4.173   4.571  43.235  0.00  0.00     0.042 A 
ATOM     16  H   UNK d   0       4.296   6.680  42.624  0.00  0.00     0.166 HD
ATOM     17  C   UNK d   0       3.764   3.848  42.097  0.00  0.00     0.062 C 
ATOM     18  C   UNK d   0       4.421   3.870  44.431  0.00  0.00    -0.013 A 
ATOM     19  C   UNK d   0       2.769   4.142  41.201  0.00  0.00     0.067 A 
ATOM     20  N   UNK d   0       2.229   5.361  41.275  0.00  0.00    -0.248 NA
ATOM     21  C   UNK d   0       2.086   3.437  40.129  0.00  0.00    -0.011 A 
ATOM     22  C   UNK d   0       1.242   5.504  40.331  0.00  0.00     0.066 A 
ATOM     23  C   UNK d   0       0.619   6.742  40.271  0.00  0.00     0.062 C 
ATOM     24  C   UNK d   0       1.191   4.237  39.627  0.00  0.00    -0.020 A 
ATOM     25  C   UNK d   0       0.936   7.900  40.998  0.00  0.00     0.041 A 
ATOM     26  N   UNK d   0       1.299   8.075  42.275  0.00  0.00    -0.355 N 
ATOM     27  C   UNK d   0       0.907   9.144  40.332  0.00  0.00    -0.022 A 
ATOM     28  C   UNK d   0       1.507   9.390  42.444  0.00  0.00     0.042 A 
ATOM     29  H   UNK d   0       1.383   7.281  43.057  0.00  0.00     0.166 HD
ATOM     30  C   UNK d   0       1.905  10.124  43.573  0.00  0.00     0.062 C 
ATOM     31  C   UNK d   0       1.267  10.093  41.239  0.00  0.00    -0.013 A 
ATOM     32  C   UNK d   0       2.853   9.782  44.524  0.00  0.00     0.066 A 
BRANCH   8  33
ATOM     33  C   UNK d   0       5.136   9.883  47.404  0.00  0.00     0.151 C 
BRANCH  33  34
ATOM     34  C   UNK d   0       6.575   9.961  47.091  0.00  0.00     0.143 C 
ATOM     35  O   UNK d   0       7.047  10.948  46.507  0.00  0.00    -0.650 OA
BRANCH  34  36
ATOM     36  O   UNK d   0       7.402   8.923  47.453  0.00  0.00    -0.776 OA
ATOM     37  H   UNK d   0       8.425   9.034  47.463  0.00  0.00     0.167 HD
ENDBRANCH  34  36
ENDBRANCH  33  34
ENDBRANCH   8  33
BRANCH  31  38
ATOM     38  C   UNK d   0       1.391  11.575  40.977  0.00  0.00     0.151 C 
BRANCH  38  39
ATOM     39  C   UNK d   0       0.242  12.325  41.439  0.00  0.00     0.143 C 
ATOM     40  O   UNK d   0      -0.708  12.614  40.692  0.00  0.00    -0.650 OA
BRANCH  39  41
ATOM     41  O   UNK d   0       0.186  12.744  42.768  0.00  0.00    -0.776 OA
ATOM     42  H   UNK d   0       0.336  12.027  43.485  0.00  0.00     0.167 HD
ENDBRANCH  39  41
ENDBRANCH  38  39
ENDBRANCH  31  38
BRANCH  27  43
ATOM     43  C   UNK d   0       0.555   9.456  38.899  0.00  0.00     0.052 C 
BRANCH  43  44
ATOM     44  C   UNK d   0       1.089   8.453  37.928  0.00  0.00     0.115 C 
BRANCH  44  45
ATOM     45  C   UNK d   0       1.747   9.224  36.841  0.00  0.00     0.139 C 
ATOM     46  O   UNK d   0       2.408   8.589  35.982  0.00  0.00    -0.650 OA
BRANCH  45  47
ATOM     47  O   UNK d   0       1.656  10.595  36.736  0.00  0.00    -0.776 OA
ATOM     48  H   UNK d   0       1.011  11.065  36.081  0.00  0.00     0.167 HD
ENDBRANCH  45  47
ENDBRANCH  44  45
ENDBRANCH  43  44
ENDBRANCH  27  43
BRANCH  24  49
ATOM     49  C   UNK d   0       0.298   3.940  38.494  0.00  0.00     0.052 C 
BRANCH  49  50
ATOM     50  C   UNK d   0       0.738   4.696  37.266  0.00  0.00     0.115 C 
BRANCH  50  51
ATOM     51  C   UNK d   0       1.279   3.914  36.163  0.00  0.00     0.139 C 
ATOM     52  O   UNK d   0       1.409   4.378  35.005  0.00  0.00    -0.650 OA
BRANCH  51  53
ATOM     53  O   UNK d   0       1.669   2.601  36.378  0.00  0.00    -0.776 OA
ATOM     54  H   UNK d   0       2.649   2.383  36.332  0.00  0.00     0.167 HD
ENDBRANCH  51  53
ENDBRANCH  50  51
ENDBRANCH  49  50
ENDBRANCH  24  49
BRANCH  21  55
ATOM     55  C   UNK d   0       2.402   2.037  39.716  0.00  0.00     0.151 C 
BRANCH  55  56
ATOM     56  C   UNK d   0       1.337   1.096  40.094  0.00  0.00     0.143 C 
ATOM     57  O   UNK d   0       0.678   0.450  39.256  0.00  0.00    -0.650 OA
BRANCH  56  58
ATOM     58  O   UNK d   0       1.067   0.933  41.452  0.00  0.00    -0.776 OA
ATOM     59  H   UNK d   0       1.073  -0.049  41.783  0.00  0.00     0.167 HD
ENDBRANCH  56  58
ENDBRANCH  55  56
ENDBRANCH  21  55
BRANCH  18  60
ATOM     60  C   UNK d   0       4.309   2.394  44.721  0.00  0.00     0.151 C 
BRANCH  60  61
ATOM     61  C   UNK d   0       3.448   1.840  43.665  0.00  0.00     0.143 C 
ATOM     62  O   UNK d   0       3.783   1.078  42.757  0.00  0.00    -0.650 OA
BRANCH  61  63
ATOM     63  O   UNK d   0       2.091   2.240  43.723  0.00  0.00    -0.776 OA
ATOM     64  H   UNK d   0       1.388   1.769  43.181  0.00  0.00     0.167 HD
ENDBRANCH  61  63
ENDBRANCH  60  61
ENDBRANCH  18  60
BRANCH  14  65
ATOM     65  C   UNK d   0       5.257   4.463  46.728  0.00  0.00     0.052 C 
BRANCH  65  66
ATOM     66  C   UNK d   0       5.312   5.633  47.645  0.00  0.00     0.115 C 
BRANCH  66  67
ATOM     67  C   UNK d   0       5.933   5.500  48.933  0.00  0.00     0.139 C 
ATOM     68  O   UNK d   0       5.193   5.213  49.944  0.00  0.00    -0.650 OA
BRANCH  67  69
ATOM     69  O   UNK d   0       7.284   5.645  49.247  0.00  0.00    -0.776 OA
ATOM     70  H   UNK d   0       7.759   6.453  48.820  0.00  0.00     0.167 HD
ENDBRANCH  67  69
ENDBRANCH  66  67
ENDBRANCH  65  66
ENDBRANCH  14  65
ENDBRANCH   6   7
ENDBRANCH   5   6
ENDBRANCH   2   5
TORSDOF 28
ENDMDL
MODEL 16
REMARK VINA RESULT:      -7.5     28.906     31.989
REMARK  28 active torsions:
REMARK  status: ('A' for Active; 'I' for Inactive)
REMARK    1  A    between atoms: C_2  and  O_3 
REMARK    2  A    between atoms: C_2  and  C_4 
REMARK    3  A    between atoms: C_4  and  C_5 
REMARK    4  A    between atoms: C_5  and  C_6 
REMARK    5  A    between atoms: C_7  and  C_8 
REMARK    6  A    between atoms: C_8  and  C_9 
REMARK    7  A    between atoms: C_9  and  O_11 
REMARK    8  A    between atoms: C_28  and  C_29 
REMARK    9  A    between atoms: C_29  and  C_30 
REMARK   10  A    between atoms: C_30  and  O_32 
REMARK   11  A    between atoms: C_33  and  C_34 
REMARK   12  A    between atoms: C_34  and  C_35 
REMARK   13  A    between atoms: C_35  and  C_36 
REMARK   14  A    between atoms: C_36  and  O_38 
REMARK   15  A    between atoms: C_39  and  C_40 
REMARK   16  A    between atoms: C_40  and  C_41 
REMARK   17  A    between atoms: C_41  and  C_42 
REMARK   18  A    between atoms: C_42  and  O_44 
REMARK   19  A    between atoms: C_45  and  C_46 
REMARK   20  A    between atoms: C_46  and  C_47 
REMARK   21  A    between atoms: C_47  and  O_49 
REMARK   22  A    between atoms: C_50  and  C_51 
REMARK   23  A    between atoms: C_51  and  C_52 
REMARK   24  A    between atoms: C_52  and  O_54 
REMARK   25  A    between atoms: C_55  and  C_56 
REMARK   26  A    between atoms: C_56  and  C_57 
REMARK   27  A    between atoms: C_57  and  C_58 
REMARK   28  A    between atoms: C_58  and  O_60 
ROOT
ATOM      1  O   UNK d   0       8.165  10.586  46.765  0.00  0.00    -0.650 OA
ATOM      2  C   UNK d   0       8.032   9.344  46.841  0.00  0.00     0.139 C 
ENDROOT
BRANCH   2   3
ATOM      3  O   UNK d   0       9.087   8.578  47.274  0.00  0.00    -0.776 OA
ATOM      4  H   UNK d   0       9.064   7.559  47.203  0.00  0.00     0.167 HD
ENDBRANCH   2   3
BRANCH   2   5
ATOM      5  C   UNK d   0       6.738   8.706  46.464  0.00  0.00     0.115 C 
BRANCH   5   6
ATOM      6  C   UNK d   0       5.658   9.748  46.361  0.00  0.00     0.052 C 
BRANCH   6   7
ATOM      7  C   UNK d   0       4.627   9.414  45.309  0.00  0.00    -0.020 A 
ATOM      8  C   UNK d   0       3.761  10.224  44.755  0.00  0.00    -0.011 A 
ATOM      9  C   UNK d   0       2.974   9.452  43.808  0.00  0.00     0.067 A 
ATOM     10  C   UNK d   0       1.933   9.716  42.904  0.00  0.00     0.062 C 
ATOM     11  N   UNK d   0       3.425   8.181  43.854  0.00  0.00    -0.248 NA
ATOM     12  C   UNK d   0       1.484   8.894  41.865  0.00  0.00     0.041 A 
ATOM     13  N   UNK d   0       1.263   7.567  41.817  0.00  0.00    -0.355 N 
ATOM     14  C   UNK d   0       1.250   9.464  40.600  0.00  0.00    -0.022 A 
ATOM     15  C   UNK d   0       0.903   7.278  40.552  0.00  0.00     0.042 A 
ATOM     16  H   UNK d   0       1.342   6.851  42.664  0.00  0.00     0.166 HD
ATOM     17  C   UNK d   0       0.559   6.047  39.959  0.00  0.00     0.062 C 
ATOM     18  C   UNK d   0       0.883   8.442  39.759  0.00  0.00    -0.013 A 
ATOM     19  C   UNK d   0       1.178   4.829  40.079  0.00  0.00     0.067 A 
ATOM     20  N   UNK d   0       2.112   4.717  41.027  0.00  0.00    -0.248 NA
ATOM     21  C   UNK d   0       1.099   3.545  39.403  0.00  0.00    -0.011 A 
ATOM     22  C   UNK d   0       2.651   3.453  41.018  0.00  0.00     0.066 A 
ATOM     23  C   UNK d   0       3.612   3.186  41.982  0.00  0.00     0.062 C 
ATOM     24  C   UNK d   0       1.966   2.746  39.954  0.00  0.00    -0.020 A 
ATOM     25  C   UNK d   0       4.039   4.021  43.025  0.00  0.00     0.041 A 
ATOM     26  N   UNK d   0       4.274   5.338  43.069  0.00  0.00    -0.355 N 
ATOM     27  C   UNK d   0       4.270   3.450  44.296  0.00  0.00    -0.022 A 
ATOM     28  C   UNK d   0       4.642   5.628  44.327  0.00  0.00     0.042 A 
ATOM     29  H   UNK d   0       4.205   6.055  42.214  0.00  0.00     0.166 HD
ATOM     30  C   UNK d   0       4.995   6.846  44.929  0.00  0.00     0.062 C 
ATOM     31  C   UNK d   0       4.651   4.459  45.126  0.00  0.00    -0.013 A 
ATOM     32  C   UNK d   0       4.420   8.092  44.738  0.00  0.00     0.066 A 
BRANCH   8  33
ATOM     33  C   UNK d   0       3.593  11.662  45.031  0.00  0.00     0.151 C 
BRANCH  33  34
ATOM     34  C   UNK d   0       2.655  11.925  46.138  0.00  0.00     0.143 C 
ATOM     35  O   UNK d   0       2.493  13.073  46.576  0.00  0.00    -0.650 OA
BRANCH  34  36
ATOM     36  O   UNK d   0       1.954  10.879  46.691  0.00  0.00    -0.776 OA
ATOM     37  H   UNK d   0       1.196  10.411  46.175  0.00  0.00     0.167 HD
ENDBRANCH  34  36
ENDBRANCH  33  34
ENDBRANCH   8  33
BRANCH  31  38
ATOM     38  C   UNK d   0       4.991   4.327  46.592  0.00  0.00     0.151 C 
BRANCH  38  39
ATOM     39  C   UNK d   0       5.026   2.951  47.039  0.00  0.00     0.143 C 
ATOM     40  O   UNK d   0       4.093   2.435  47.678  0.00  0.00    -0.650 OA
BRANCH  39  41
ATOM     41  O   UNK d   0       6.140   2.164  46.748  0.00  0.00    -0.776 OA
ATOM     42  H   UNK d   0       6.166   1.229  47.166  0.00  0.00     0.167 HD
ENDBRANCH  39  41
ENDBRANCH  38  39
ENDBRANCH  31  38
BRANCH  27  43
ATOM     43  C   UNK d   0       4.146   2.013  44.737  0.00  0.00     0.052 C 
BRANCH  43  44
ATOM     44  C   UNK d   0       4.044   1.052  43.598  0.00  0.00     0.115 C 
BRANCH  44  45
ATOM     45  C   UNK d   0       4.316  -0.298  44.156  0.00  0.00     0.139 C 
ATOM     46  O   UNK d   0       4.617  -0.386  45.372  0.00  0.00    -0.650 OA
BRANCH  45  47
ATOM     47  O   UNK d   0       4.246  -1.448  43.399  0.00  0.00    -0.776 OA
ATOM     48  H   UNK d   0       4.777  -2.304  43.629  0.00  0.00     0.167 HD
ENDBRANCH  45  47
ENDBRANCH  44  45
ENDBRANCH  43  44
ENDBRANCH  27  43
BRANCH  24  49
ATOM     49  C   UNK d   0       2.192   1.334  39.601  0.00  0.00     0.052 C 
BRANCH  49  50
ATOM     50  C   UNK d   0       1.579   0.429  40.639  0.00  0.00     0.115 C 
BRANCH  50  51
ATOM     51  C   UNK d   0       0.130   0.283  40.620  0.00  0.00     0.139 C 
ATOM     52  O   UNK d   0      -0.521   0.128  39.559  0.00  0.00    -0.650 OA
BRANCH  51  53
ATOM     53  O   UNK d   0      -0.579   0.314  41.811  0.00  0.00    -0.776 OA
ATOM     54  H   UNK d   0      -0.855  -0.560  42.223  0.00  0.00     0.167 HD
ENDBRANCH  51  53
ENDBRANCH  50  51
ENDBRANCH  49  50
ENDBRANCH  24  49
BRANCH  21  55
ATOM     55  C   UNK d   0       0.162   3.250  38.279  0.00  0.00     0.151 C 
BRANCH  55  56
ATOM     56  C   UNK d   0       0.763   3.542  36.968  0.00  0.00     0.143 C 
ATOM     57  O   UNK d   0       1.311   2.669  36.267  0.00  0.00    -0.650 OA
BRANCH  56  58
ATOM     58  O   UNK d   0       0.707   4.857  36.507  0.00  0.00    -0.776 OA
ATOM     59  H   UNK d   0       1.381   5.505  36.954  0.00  0.00     0.167 HD
ENDBRANCH  56  58
ENDBRANCH  55  56
ENDBRANCH  21  55
BRANCH  18  60
ATOM     60  C   UNK d   0       0.546   8.604  38.298  0.00  0.00     0.151 C 
BRANCH  60  61
ATOM     61  C   UNK d   0       1.803   8.380  37.566  0.00  0.00     0.143 C 
ATOM     62  O   UNK d   0       2.338   7.298  37.324  0.00  0.00    -0.650 OA
BRANCH  61  63
ATOM     63  O   UNK d   0       2.446   9.552  37.101  0.00  0.00    -0.776 OA
ATOM     64  H   UNK d   0       3.222   9.950  37.599  0.00  0.00     0.167 HD
ENDBRANCH  61  63
ENDBRANCH  60  61
ENDBRANCH  18  60
BRANCH  14  65
ATOM     65  C   UNK d   0       1.251  10.899  40.154  0.00  0.00     0.052 C 
BRANCH  65  66
ATOM     66  C   UNK d   0       2.589  11.366  39.702  0.00  0.00     0.115 C 
BRANCH  66  67
ATOM     67  C   UNK d   0       3.468  12.015  40.633  0.00  0.00     0.139 C 
ATOM     68  O   UNK d   0       4.734  11.981  40.408  0.00  0.00    -0.650 OA
BRANCH  67  69
ATOM     69  O   UNK d   0       3.123  12.705  41.795  0.00  0.00    -0.776 OA
ATOM     70  H   UNK d   0       3.352  12.232  42.681  0.00  0.00     0.167 HD
ENDBRANCH  67  69
ENDBRANCH  66  67
ENDBRANCH  65  66
ENDBRANCH  14  65
ENDBRANCH   6   7
ENDBRANCH   5   6
ENDBRANCH   2   5
TORSDOF 28
ENDMDL
MODEL 17
REMARK VINA RESULT:      -7.4     29.483     32.540
REMARK  28 active torsions:
REMARK  status: ('A' for Active; 'I' for Inactive)
REMARK    1  A    between atoms: C_2  and  O_3 
REMARK    2  A    between atoms: C_2  and  C_4 
REMARK    3  A    between atoms: C_4  and  C_5 
REMARK    4  A    between atoms: C_5  and  C_6 
REMARK    5  A    between atoms: C_7  and  C_8 
REMARK    6  A    between atoms: C_8  and  C_9 
REMARK    7  A    between atoms: C_9  and  O_11 
REMARK    8  A    between atoms: C_28  and  C_29 
REMARK    9  A    between atoms: C_29  and  C_30 
REMARK   10  A    between atoms: C_30  and  O_32 
REMARK   11  A    between atoms: C_33  and  C_34 
REMARK   12  A    between atoms: C_34  and  C_35 
REMARK   13  A    between atoms: C_35  and  C_36 
REMARK   14  A    between atoms: C_36  and  O_38 
REMARK   15  A    between atoms: C_39  and  C_40 
REMARK   16  A    between atoms: C_40  and  C_41 
REMARK   17  A    between atoms: C_41  and  C_42 
REMARK   18  A    between atoms: C_42  and  O_44 
REMARK   19  A    between atoms: C_45  and  C_46 
REMARK   20  A    between atoms: C_46  and  C_47 
REMARK   21  A    between atoms: C_47  and  O_49 
REMARK   22  A    between atoms: C_50  and  C_51 
REMARK   23  A    between atoms: C_51  and  C_52 
REMARK   24  A    between atoms: C_52  and  O_54 
REMARK   25  A    between atoms: C_55  and  C_56 
REMARK   26  A    between atoms: C_56  and  C_57 
REMARK   27  A    between atoms: C_57  and  C_58 
REMARK   28  A    between atoms: C_58  and  O_60 
ROOT
ATOM      1  O   UNK d   0       6.085  11.184  41.411  0.00  0.00    -0.650 OA
ATOM      2  C   UNK d   0       5.245  11.494  40.537  0.00  0.00     0.139 C 
ENDROOT
BRANCH   2   3
ATOM      3  O   UNK d   0       5.676  11.834  39.278  0.00  0.00    -0.776 OA
ATOM      4  H   UNK d   0       6.673  11.904  39.063  0.00  0.00     0.167 HD
ENDBRANCH   2   3
BRANCH   2   5
ATOM      5  C   UNK d   0       3.791  11.494  40.865  0.00  0.00     0.115 C 
BRANCH   5   6
ATOM      6  C   UNK d   0       2.982  11.206  39.629  0.00  0.00     0.052 C 
BRANCH   6   7
ATOM      7  C   UNK d   0       2.499   9.777  39.570  0.00  0.00    -0.020 A 
ATOM      8  C   UNK d   0       1.651   9.255  38.721  0.00  0.00    -0.011 A 
ATOM      9  C   UNK d   0       1.488   7.852  39.060  0.00  0.00     0.067 A 
ATOM     10  C   UNK d   0       0.763   6.764  38.549  0.00  0.00     0.062 C 
ATOM     11  N   UNK d   0       2.269   7.605  40.133  0.00  0.00    -0.248 NA
ATOM     12  C   UNK d   0       0.948   5.409  38.844  0.00  0.00     0.041 A 
ATOM     13  N   UNK d   0       1.176   4.779  40.013  0.00  0.00    -0.355 N 
ATOM     14  C   UNK d   0       0.968   4.479  37.789  0.00  0.00    -0.022 A 
ATOM     15  C   UNK d   0       1.347   3.475  39.725  0.00  0.00     0.042 A 
ATOM     16  H   UNK d   0       1.195   5.244  41.023  0.00  0.00     0.166 HD
ATOM     17  C   UNK d   0       1.610   2.379  40.572  0.00  0.00     0.062 C 
ATOM     18  C   UNK d   0       1.224   3.248  38.340  0.00  0.00    -0.013 A 
ATOM     19  C   UNK d   0       2.501   2.286  41.610  0.00  0.00     0.067 A 
ATOM     20  N   UNK d   0       3.069   3.422  42.023  0.00  0.00    -0.248 NA
ATOM     21  C   UNK d   0       3.044   1.214  42.428  0.00  0.00    -0.011 A 
ATOM     22  C   UNK d   0       3.944   3.170  43.051  0.00  0.00     0.066 A 
ATOM     23  C   UNK d   0       4.579   4.273  43.604  0.00  0.00     0.062 C 
ATOM     24  C   UNK d   0       3.890   1.738  43.267  0.00  0.00    -0.020 A 
ATOM     25  C   UNK d   0       4.370   5.627  43.302  0.00  0.00     0.041 A 
ATOM     26  N   UNK d   0       4.159   6.255  42.139  0.00  0.00    -0.355 N 
ATOM     27  C   UNK d   0       4.346   6.559  44.362  0.00  0.00    -0.022 A 
ATOM     28  C   UNK d   0       3.996   7.557  42.422  0.00  0.00     0.042 A 
ATOM     29  H   UNK d   0       4.150   5.788  41.123  0.00  0.00     0.166 HD
ATOM     30  C   UNK d   0       3.744   8.659  41.589  0.00  0.00     0.062 C 
ATOM     31  C   UNK d   0       4.109   7.783  43.815  0.00  0.00    -0.013 A 
ATOM     32  C   UNK d   0       2.905   8.723  40.488  0.00  0.00     0.066 A 
BRANCH   8  33
ATOM     33  C   UNK d   0       0.968   9.949  37.614  0.00  0.00     0.151 C 
BRANCH  33  34
ATOM     34  C   UNK d   0       1.625   9.733  36.312  0.00  0.00     0.143 C 
ATOM     35  O   UNK d   0       1.266  10.361  35.306  0.00  0.00    -0.650 OA
BRANCH  34  36
ATOM     36  O   UNK d   0       2.649   8.820  36.216  0.00  0.00    -0.776 OA
ATOM     37  H   UNK d   0       2.870   8.356  35.325  0.00  0.00     0.167 HD
ENDBRANCH  34  36
ENDBRANCH  33  34
ENDBRANCH   8  33
BRANCH  31  38
ATOM     38  C   UNK d   0       3.985   9.087  44.567  0.00  0.00     0.151 C 
BRANCH  38  39
ATOM     39  C   UNK d   0       5.224   9.833  44.608  0.00  0.00     0.143 C 
ATOM     40  O   UNK d   0       5.361  10.860  45.295  0.00  0.00    -0.650 OA
BRANCH  39  41
ATOM     41  O   UNK d   0       6.314   9.395  43.855  0.00  0.00    -0.776 OA
ATOM     42  H   UNK d   0       6.158   9.266  42.850  0.00  0.00     0.167 HD
ENDBRANCH  39  41
ENDBRANCH  38  39
ENDBRANCH  31  38
BRANCH  27  43
ATOM     43  C   UNK d   0       4.537   6.334  45.841  0.00  0.00     0.052 C 
BRANCH  43  44
ATOM     44  C   UNK d   0       5.492   7.297  46.467  0.00  0.00     0.115 C 
BRANCH  44  45
ATOM     45  C   UNK d   0       5.642   6.885  47.887  0.00  0.00     0.139 C 
ATOM     46  O   UNK d   0       4.853   6.018  48.338  0.00  0.00    -0.650 OA
BRANCH  45  47
ATOM     47  O   UNK d   0       6.608   7.408  48.719  0.00  0.00    -0.776 OA
ATOM     48  H   UNK d   0       7.021   6.875  49.502  0.00  0.00     0.167 HD
ENDBRANCH  45  47
ENDBRANCH  44  45
ENDBRANCH  43  44
ENDBRANCH  27  43
BRANCH  24  49
ATOM     49  C   UNK d   0       4.642   1.015  44.307  0.00  0.00     0.052 C 
BRANCH  49  50
ATOM     50  C   UNK d   0       4.112   1.362  45.674  0.00  0.00     0.115 C 
BRANCH  50  51
ATOM     51  C   UNK d   0       5.011   2.071  46.575  0.00  0.00     0.139 C 
ATOM     52  O   UNK d   0       6.182   1.685  46.804  0.00  0.00    -0.650 OA
BRANCH  51  53
ATOM     53  O   UNK d   0       4.573   3.218  47.219  0.00  0.00    -0.776 OA
ATOM     54  H   UNK d   0       5.175   3.636  47.907  0.00  0.00     0.167 HD
ENDBRANCH  51  53
ENDBRANCH  50  51
ENDBRANCH  49  50
ENDBRANCH  24  49
BRANCH  21  55
ATOM     55  C   UNK d   0       2.655  -0.221  42.289  0.00  0.00     0.151 C 
BRANCH  55  56
ATOM     56  C   UNK d   0       3.272  -0.847  41.109  0.00  0.00     0.143 C 
ATOM     57  O   UNK d   0       2.808  -0.721  39.959  0.00  0.00    -0.650 OA
BRANCH  56  58
ATOM     58  O   UNK d   0       4.422  -1.609  41.306  0.00  0.00    -0.776 OA
ATOM     59  H   UNK d   0       4.560  -2.375  40.622  0.00  0.00     0.167 HD
ENDBRANCH  56  58
ENDBRANCH  55  56
ENDBRANCH  21  55
BRANCH  18  60
ATOM     60  C   UNK d   0       1.341   1.960  37.564  0.00  0.00     0.151 C 
BRANCH  60  61
ATOM     61  C   UNK d   0       0.231   1.110  38.022  0.00  0.00     0.143 C 
ATOM     62  O   UNK d   0      -0.871   1.483  38.427  0.00  0.00    -0.650 OA
BRANCH  61  63
ATOM     63  O   UNK d   0       0.482  -0.282  37.982  0.00  0.00    -0.776 OA
ATOM     64  H   UNK d   0      -0.075  -0.893  37.411  0.00  0.00     0.167 HD
ENDBRANCH  61  63
ENDBRANCH  60  61
ENDBRANCH  18  60
BRANCH  14  65
ATOM     65  C   UNK d   0       0.669   4.648  36.326  0.00  0.00     0.052 C 
BRANCH  65  66
ATOM     66  C   UNK d   0       1.813   5.209  35.560  0.00  0.00     0.115 C 
BRANCH  66  67
ATOM     67  C   UNK d   0       2.387   4.454  34.482  0.00  0.00     0.139 C 
ATOM     68  O   UNK d   0       3.337   4.985  33.798  0.00  0.00    -0.650 OA
BRANCH  67  69
ATOM     69  O   UNK d   0       2.039   3.171  34.059  0.00  0.00    -0.776 OA
ATOM     70  H   UNK d   0       2.710   2.710  33.428  0.00  0.00     0.167 HD
ENDBRANCH  67  69
ENDBRANCH  66  67
ENDBRANCH  65  66
ENDBRANCH  14  65
ENDBRANCH   6   7
ENDBRANCH   5   6
ENDBRANCH   2   5
TORSDOF 28
ENDMDL
MODEL 18
REMARK VINA RESULT:      -7.3     27.256     32.053
REMARK  28 active torsions:
REMARK  status: ('A' for Active; 'I' for Inactive)
REMARK    1  A    between atoms: C_2  and  O_3 
REMARK    2  A    between atoms: C_2  and  C_4 
REMARK    3  A    between atoms: C_4  and  C_5 
REMARK    4  A    between atoms: C_5  and  C_6 
REMARK    5  A    between atoms: C_7  and  C_8 
REMARK    6  A    between atoms: C_8  and  C_9 
REMARK    7  A    between atoms: C_9  and  O_11 
REMARK    8  A    between atoms: C_28  and  C_29 
REMARK    9  A    between atoms: C_29  and  C_30 
REMARK   10  A    between atoms: C_30  and  O_32 
REMARK   11  A    between atoms: C_33  and  C_34 
REMARK   12  A    between atoms: C_34  and  C_35 
REMARK   13  A    between atoms: C_35  and  C_36 
REMARK   14  A    between atoms: C_36  and  O_38 
REMARK   15  A    between atoms: C_39  and  C_40 
REMARK   16  A    between atoms: C_40  and  C_41 
REMARK   17  A    between atoms: C_41  and  C_42 
REMARK   18  A    between atoms: C_42  and  O_44 
REMARK   19  A    between atoms: C_45  and  C_46 
REMARK   20  A    between atoms: C_46  and  C_47 
REMARK   21  A    between atoms: C_47  and  O_49 
REMARK   22  A    between atoms: C_50  and  C_51 
REMARK   23  A    between atoms: C_51  and  C_52 
REMARK   24  A    between atoms: C_52  and  O_54 
REMARK   25  A    between atoms: C_55  and  C_56 
REMARK   26  A    between atoms: C_56  and  C_57 
REMARK   27  A    between atoms: C_57  and  C_58 
REMARK   28  A    between atoms: C_58  and  O_60 
ROOT
ATOM      1  O   UNK d   0       2.060  12.353  29.694  0.00  0.00    -0.650 OA
ATOM      2  C   UNK d   0       1.365  11.342  29.940  0.00  0.00     0.139 C 
ENDROOT
BRANCH   2   3
ATOM      3  O   UNK d   0       0.129  11.216  29.355  0.00  0.00    -0.776 OA
ATOM      4  H   UNK d   0      -0.504  10.456  29.616  0.00  0.00     0.167 HD
ENDBRANCH   2   3
BRANCH   2   5
ATOM      5  C   UNK d   0       1.878  10.287  30.860  0.00  0.00     0.115 C 
BRANCH   5   6
ATOM      6  C   UNK d   0       3.379  10.353  30.937  0.00  0.00     0.052 C 
BRANCH   6   7
ATOM      7  C   UNK d   0       4.045   9.130  30.353  0.00  0.00    -0.020 A 
ATOM      8  C   UNK d   0       4.576   9.001  29.163  0.00  0.00    -0.011 A 
ATOM      9  C   UNK d   0       5.086   7.645  29.048  0.00  0.00     0.067 A 
ATOM     10  C   UNK d   0       5.764   6.898  28.072  0.00  0.00     0.062 C 
ATOM     11  N   UNK d   0       4.819   7.016  30.212  0.00  0.00    -0.248 NA
ATOM     12  C   UNK d   0       6.426   5.678  28.248  0.00  0.00     0.041 A 
ATOM     13  N   UNK d   0       6.079   4.572  28.933  0.00  0.00    -0.355 N 
ATOM     14  C   UNK d   0       7.706   5.512  27.689  0.00  0.00    -0.022 A 
ATOM     15  C   UNK d   0       7.109   3.711  28.830  0.00  0.00     0.042 A 
ATOM     16  H   UNK d   0       5.117   4.395  29.462  0.00  0.00     0.166 HD
ATOM     17  C   UNK d   0       7.271   2.413  29.354  0.00  0.00     0.062 C 
ATOM     18  C   UNK d   0       8.148   4.265  28.058  0.00  0.00    -0.013 A 
ATOM     19  C   UNK d   0       6.986   1.949  30.613  0.00  0.00     0.067 A 
ATOM     20  N   UNK d   0       6.281   2.757  31.410  0.00  0.00    -0.248 NA
ATOM     21  C   UNK d   0       7.272   0.744  31.372  0.00  0.00    -0.011 A 
ATOM     22  C   UNK d   0       6.087   2.168  32.635  0.00  0.00     0.066 A 
ATOM     23  C   UNK d   0       5.334   2.885  33.552  0.00  0.00     0.062 C 
ATOM     24  C   UNK d   0       6.748   0.879  32.556  0.00  0.00    -0.020 A 
ATOM     25  C   UNK d   0       4.667   4.104  33.352  0.00  0.00     0.041 A 
ATOM     26  N   UNK d   0       5.018   5.209  32.684  0.00  0.00    -0.355 N 
ATOM     27  C   UNK d   0       3.380   4.268  33.909  0.00  0.00    -0.022 A 
ATOM     28  C   UNK d   0       3.996   6.072  32.792  0.00  0.00     0.042 A 
ATOM     29  H   UNK d   0       5.990   5.389  32.161  0.00  0.00     0.166 HD
ATOM     30  C   UNK d   0       3.826   7.370  32.284  0.00  0.00     0.062 C 
ATOM     31  C   UNK d   0       2.948   5.511  33.559  0.00  0.00    -0.013 A 
ATOM     32  C   UNK d   0       4.194   7.855  31.039  0.00  0.00     0.066 A 
BRANCH   8  33
ATOM     33  C   UNK d   0       4.649  10.031  28.111  0.00  0.00     0.151 C 
BRANCH  33  34
ATOM     34  C   UNK d   0       3.599   9.876  27.087  0.00  0.00     0.143 C 
ATOM     35  O   UNK d   0       3.778  10.273  25.927  0.00  0.00    -0.650 OA
BRANCH  34  36
ATOM     36  O   UNK d   0       2.405   9.284  27.428  0.00  0.00    -0.776 OA
ATOM     37  H   UNK d   0       1.978   9.435  28.352  0.00  0.00     0.167 HD
ENDBRANCH  34  36
ENDBRANCH  33  34
ENDBRANCH   8  33
BRANCH  31  38
ATOM     38  C   UNK d   0       1.615   6.125  33.919  0.00  0.00     0.151 C 
BRANCH  38  39
ATOM     39  C   UNK d   0       1.645   6.833  35.180  0.00  0.00     0.143 C 
ATOM     40  O   UNK d   0       1.312   6.298  36.252  0.00  0.00    -0.650 OA
BRANCH  39  41
ATOM     41  O   UNK d   0       2.062   8.164  35.211  0.00  0.00    -0.776 OA
ATOM     42  H   UNK d   0       1.442   8.831  35.679  0.00  0.00     0.167 HD
ENDBRANCH  39  41
ENDBRANCH  38  39
ENDBRANCH  31  38
BRANCH  27  43
ATOM     43  C   UNK d   0       2.568   3.310  34.744  0.00  0.00     0.052 C 
BRANCH  43  44
ATOM     44  C   UNK d   0       2.056   2.139  33.969  0.00  0.00     0.115 C 
BRANCH  44  45
ATOM     45  C   UNK d   0       2.438   0.924  34.735  0.00  0.00     0.139 C 
ATOM     46  O   UNK d   0       1.797  -0.135  34.524  0.00  0.00    -0.650 OA
BRANCH  45  47
ATOM     47  O   UNK d   0       3.463   0.913  35.656  0.00  0.00    -0.776 OA
ATOM     48  H   UNK d   0       3.906   0.042  35.991  0.00  0.00     0.167 HD
ENDBRANCH  45  47
ENDBRANCH  44  45
ENDBRANCH  43  44
ENDBRANCH  27  43
BRANCH  24  49
ATOM     49  C   UNK d   0       6.767  -0.123  33.635  0.00  0.00     0.052 C 
BRANCH  49  50
ATOM     50  C   UNK d   0       8.060  -0.039  34.406  0.00  0.00     0.115 C 
BRANCH  50  51
ATOM     51  C   UNK d   0       7.976   0.374  35.800  0.00  0.00     0.139 C 
ATOM     52  O   UNK d   0       6.914   0.790  36.320  0.00  0.00    -0.650 OA
BRANCH  51  53
ATOM     53  O   UNK d   0       9.106   0.316  36.602  0.00  0.00    -0.776 OA
ATOM     54  H   UNK d   0       8.982   0.318  37.599  0.00  0.00     0.167 HD
ENDBRANCH  51  53
ENDBRANCH  50  51
ENDBRANCH  49  50
ENDBRANCH  24  49
BRANCH  21  55
ATOM     55  C   UNK d   0       8.037  -0.420  30.834  0.00  0.00     0.151 C 
BRANCH  55  56
ATOM     56  C   UNK d   0       7.186  -1.608  30.663  0.00  0.00     0.143 C 
ATOM     57  O   UNK d   0       7.375  -2.669  31.289  0.00  0.00    -0.650 OA
BRANCH  56  58
ATOM     58  O   UNK d   0       6.129  -1.524  29.759  0.00  0.00    -0.776 OA
ATOM     59  H   UNK d   0       6.384  -1.703  28.771  0.00  0.00     0.167 HD
ENDBRANCH  56  58
ENDBRANCH  55  56
ENDBRANCH  21  55
BRANCH  18  60
ATOM     60  C   UNK d   0       9.485   3.676  27.681  0.00  0.00     0.151 C 
BRANCH  60  61
ATOM     61  C   UNK d   0      10.266   3.618  28.926  0.00  0.00     0.143 C 
ATOM     62  O   UNK d   0      10.672   2.608  29.502  0.00  0.00    -0.650 OA
BRANCH  61  63
ATOM     63  O   UNK d   0      10.572   4.874  29.504  0.00  0.00    -0.776 OA
ATOM     64  H   UNK d   0       9.857   5.434  29.934  0.00  0.00     0.167 HD
ENDBRANCH  61  63
ENDBRANCH  60  61
ENDBRANCH  18  60
BRANCH  14  65
ATOM     65  C   UNK d   0       8.494   6.393  26.762  0.00  0.00     0.052 C 
BRANCH  65  66
ATOM     66  C   UNK d   0       9.430   7.301  27.478  0.00  0.00     0.115 C 
BRANCH  66  67
ATOM     67  C   UNK d   0       9.024   7.913  28.712  0.00  0.00     0.139 C 
ATOM     68  O   UNK d   0       8.459   9.067  28.668  0.00  0.00    -0.650 OA
BRANCH  67  69
ATOM     69  O   UNK d   0       9.166   7.405  30.003  0.00  0.00    -0.776 OA
ATOM     70  H   UNK d   0       8.700   7.941  30.748  0.00  0.00     0.167 HD
ENDBRANCH  67  69
ENDBRANCH  66  67
ENDBRANCH  65  66
ENDBRANCH  14  65
ENDBRANCH   6   7
ENDBRANCH   5   6
ENDBRANCH   2   5
TORSDOF 28
ENDMDL
MODEL 19
REMARK VINA RESULT:      -7.3     29.298     32.539
REMARK  28 active torsions:
REMARK  status: ('A' for Active; 'I' for Inactive)
REMARK    1  A    between atoms: C_2  and  O_3 
REMARK    2  A    between atoms: C_2  and  C_4 
REMARK    3  A    between atoms: C_4  and  C_5 
REMARK    4  A    between atoms: C_5  and  C_6 
REMARK    5  A    between atoms: C_7  and  C_8 
REMARK    6  A    between atoms: C_8  and  C_9 
REMARK    7  A    between atoms: C_9  and  O_11 
REMARK    8  A    between atoms: C_28  and  C_29 
REMARK    9  A    between atoms: C_29  and  C_30 
REMARK   10  A    between atoms: C_30  and  O_32 
REMARK   11  A    between atoms: C_33  and  C_34 
REMARK   12  A    between atoms: C_34  and  C_35 
REMARK   13  A    between atoms: C_35  and  C_36 
REMARK   14  A    between atoms: C_36  and  O_38 
REMARK   15  A    between atoms: C_39  and  C_40 
REMARK   16  A    between atoms: C_40  and  C_41 
REMARK   17  A    between atoms: C_41  and  C_42 
REMARK   18  A    between atoms: C_42  and  O_44 
REMARK   19  A    between atoms: C_45  and  C_46 
REMARK   20  A    between atoms: C_46  and  C_47 
REMARK   21  A    between atoms: C_47  and  O_49 
REMARK   22  A    between atoms: C_50  and  C_51 
REMARK   23  A    between atoms: C_51  and  C_52 
REMARK   24  A    between atoms: C_52  and  O_54 
REMARK   25  A    between atoms: C_55  and  C_56 
REMARK   26  A    between atoms: C_56  and  C_57 
REMARK   27  A    between atoms: C_57  and  C_58 
REMARK   28  A    between atoms: C_58  and  O_60 
ROOT
ATOM      1  O   UNK d   0       4.585  11.327  46.016  0.00  0.00    -0.650 OA
ATOM      2  C   UNK d   0       3.440  11.759  45.753  0.00  0.00     0.139 C 
ENDROOT
BRANCH   2   3
ATOM      3  O   UNK d   0       2.417  11.538  46.643  0.00  0.00    -0.776 OA
ATOM      4  H   UNK d   0       1.440  11.574  46.344  0.00  0.00     0.167 HD
ENDBRANCH   2   3
BRANCH   2   5
ATOM      5  C   UNK d   0       3.194  12.503  44.486  0.00  0.00     0.115 C 
BRANCH   5   6
ATOM      6  C   UNK d   0       4.002  11.903  43.367  0.00  0.00     0.052 C 
BRANCH   6   7
ATOM      7  C   UNK d   0       3.285  10.769  42.676  0.00  0.00    -0.020 A 
ATOM      8  C   UNK d   0       2.346  10.853  41.768  0.00  0.00    -0.011 A 
ATOM      9  C   UNK d   0       1.956   9.500  41.405  0.00  0.00     0.067 A 
ATOM     10  C   UNK d   0       1.050   8.915  40.508  0.00  0.00     0.062 C 
ATOM     11  N   UNK d   0       2.703   8.655  42.145  0.00  0.00    -0.248 NA
ATOM     12  C   UNK d   0       1.010   7.578  40.095  0.00  0.00     0.041 A 
ATOM     13  N   UNK d   0       1.149   6.432  40.789  0.00  0.00    -0.355 N 
ATOM     14  C   UNK d   0       0.854   7.293  38.727  0.00  0.00    -0.022 A 
ATOM     15  C   UNK d   0       1.094   5.427  39.894  0.00  0.00     0.042 A 
ATOM     16  H   UNK d   0       1.265   6.335  41.891  0.00  0.00     0.166 HD
ATOM     17  C   UNK d   0       1.184   4.033  40.080  0.00  0.00     0.062 C 
ATOM     18  C   UNK d   0       0.910   5.928  38.591  0.00  0.00    -0.013 A 
ATOM     19  C   UNK d   0       2.066   3.321  40.852  0.00  0.00     0.067 A 
ATOM     20  N   UNK d   0       2.823   4.018  41.703  0.00  0.00    -0.248 NA
ATOM     21  C   UNK d   0       2.435   1.923  40.997  0.00  0.00    -0.011 A 
ATOM     22  C   UNK d   0       3.662   3.177  42.392  0.00  0.00     0.066 A 
ATOM     23  C   UNK d   0       4.483   3.768  43.342  0.00  0.00     0.062 C 
ATOM     24  C   UNK d   0       3.373   1.846  41.897  0.00  0.00    -0.020 A 
ATOM     25  C   UNK d   0       4.499   5.110  43.750  0.00  0.00     0.041 A 
ATOM     26  N   UNK d   0       4.375   6.250  43.059  0.00  0.00    -0.355 N 
ATOM     27  C   UNK d   0       4.651   5.396  45.125  0.00  0.00    -0.022 A 
ATOM     28  C   UNK d   0       4.439   7.254  43.948  0.00  0.00     0.042 A 
ATOM     29  H   UNK d   0       4.270   6.347  41.951  0.00  0.00     0.166 HD
ATOM     30  C   UNK d   0       4.360   8.645  43.776  0.00  0.00     0.062 C 
ATOM     31  C   UNK d   0       4.613   6.750  45.259  0.00  0.00    -0.013 A 
ATOM     32  C   UNK d   0       3.524   9.356  42.930  0.00  0.00     0.066 A 
BRANCH   8  33
ATOM     33  C   UNK d   0       1.769  12.087  41.204  0.00  0.00     0.151 C 
BRANCH  33  34
ATOM     34  C   UNK d   0       0.424  12.380  41.730  0.00  0.00     0.143 C 
ATOM     35  O   UNK d   0       0.189  12.323  42.946  0.00  0.00    -0.650 OA
BRANCH  34  36
ATOM     36  O   UNK d   0      -0.584  12.719  40.857  0.00  0.00    -0.776 OA
ATOM     37  H   UNK d   0      -0.434  12.713  39.839  0.00  0.00     0.167 HD
ENDBRANCH  34  36
ENDBRANCH  33  34
ENDBRANCH   8  33
BRANCH  31  38
ATOM     38  C   UNK d   0       4.723   7.521  46.554  0.00  0.00     0.151 C 
BRANCH  38  39
ATOM     39  C   UNK d   0       6.086   7.883  46.878  0.00  0.00     0.143 C 
ATOM     40  O   UNK d   0       6.766   7.246  47.702  0.00  0.00    -0.650 OA
BRANCH  39  41
ATOM     41  O   UNK d   0       6.671   8.983  46.251  0.00  0.00    -0.776 OA
ATOM     42  H   UNK d   0       7.335   8.785  45.496  0.00  0.00     0.167 HD
ENDBRANCH  39  41
ENDBRANCH  38  39
ENDBRANCH  31  38
BRANCH  27  43
ATOM     43  C   UNK d   0       4.828   4.450  46.286  0.00  0.00     0.052 C 
BRANCH  43  44
ATOM     44  C   UNK d   0       4.770   3.011  45.890  0.00  0.00     0.115 C 
BRANCH  44  45
ATOM     45  C   UNK d   0       5.423   2.244  46.983  0.00  0.00     0.139 C 
ATOM     46  O   UNK d   0       5.645   1.021  46.797  0.00  0.00    -0.650 OA
BRANCH  45  47
ATOM     47  O   UNK d   0       5.796   2.817  48.179  0.00  0.00    -0.776 OA
ATOM     48  H   UNK d   0       5.885   2.278  49.055  0.00  0.00     0.167 HD
ENDBRANCH  45  47
ENDBRANCH  44  45
ENDBRANCH  43  44
ENDBRANCH  27  43
BRANCH  24  49
ATOM     49  C   UNK d   0       4.011   0.610  42.382  0.00  0.00     0.052 C 
BRANCH  49  50
ATOM     50  C   UNK d   0       3.392  -0.594  41.721  0.00  0.00     0.115 C 
BRANCH  50  51
ATOM     51  C   UNK d   0       3.812  -1.904  42.200  0.00  0.00     0.139 C 
ATOM     52  O   UNK d   0       4.997  -2.304  42.123  0.00  0.00    -0.650 OA
BRANCH  51  53
ATOM     53  O   UNK d   0       2.879  -2.760  42.765  0.00  0.00    -0.776 OA
ATOM     54  H   UNK d   0       2.524  -3.514  42.203  0.00  0.00     0.167 HD
ENDBRANCH  51  53
ENDBRANCH  50  51
ENDBRANCH  49  50
ENDBRANCH  24  49
BRANCH  21  55
ATOM     55  C   UNK d   0       1.809   0.810  40.224  0.00  0.00     0.151 C 
BRANCH  55  56
ATOM     56  C   UNK d   0       0.346   0.786  40.378  0.00  0.00     0.143 C 
ATOM     57  O   UNK d   0      -0.435   0.799  39.406  0.00  0.00    -0.650 OA
BRANCH  56  58
ATOM     58  O   UNK d   0      -0.170   0.749  41.672  0.00  0.00    -0.776 OA
ATOM     59  H   UNK d   0      -0.854  -0.009  41.847  0.00  0.00     0.167 HD
ENDBRANCH  56  58
ENDBRANCH  55  56
ENDBRANCH  21  55
BRANCH  18  60
ATOM     60  C   UNK d   0       0.794   5.184  37.283  0.00  0.00     0.151 C 
BRANCH  60  61
ATOM     61  C   UNK d   0       0.649   3.764  37.638  0.00  0.00     0.143 C 
ATOM     62  O   UNK d   0       1.501   2.881  37.532  0.00  0.00    -0.650 OA
BRANCH  61  63
ATOM     63  O   UNK d   0      -0.617   3.399  38.156  0.00  0.00    -0.776 OA
ATOM     64  H   UNK d   0      -1.115   2.604  37.796  0.00  0.00     0.167 HD
ENDBRANCH  61  63
ENDBRANCH  60  61
ENDBRANCH  18  60
BRANCH  14  65
ATOM     65  C   UNK d   0       0.561   8.196  37.563  0.00  0.00     0.052 C 
BRANCH  65  66
ATOM     66  C   UNK d   0       1.790   8.674  36.874  0.00  0.00     0.115 C 
BRANCH  66  67
ATOM     67  C   UNK d   0       1.913   8.518  35.452  0.00  0.00     0.139 C 
ATOM     68  O   UNK d   0       1.305   7.537  34.886  0.00  0.00    -0.650 OA
BRANCH  67  69
ATOM     69  O   UNK d   0       2.633   9.319  34.565  0.00  0.00    -0.776 OA
ATOM     70  H   UNK d   0       3.487   8.897  34.173  0.00  0.00     0.167 HD
ENDBRANCH  67  69
ENDBRANCH  66  67
ENDBRANCH  65  66
ENDBRANCH  14  65
ENDBRANCH   6   7
ENDBRANCH   5   6
ENDBRANCH   2   5
TORSDOF 28
ENDMDL
MODEL 20
REMARK VINA RESULT:      -7.1     27.619     32.454
REMARK  28 active torsions:
REMARK  status: ('A' for Active; 'I' for Inactive)
REMARK    1  A    between atoms: C_2  and  O_3 
REMARK    2  A    between atoms: C_2  and  C_4 
REMARK    3  A    between atoms: C_4  and  C_5 
REMARK    4  A    between atoms: C_5  and  C_6 
REMARK    5  A    between atoms: C_7  and  C_8 
REMARK    6  A    between atoms: C_8  and  C_9 
REMARK    7  A    between atoms: C_9  and  O_11 
REMARK    8  A    between atoms: C_28  and  C_29 
REMARK    9  A    between atoms: C_29  and  C_30 
REMARK   10  A    between atoms: C_30  and  O_32 
REMARK   11  A    between atoms: C_33  and  C_34 
REMARK   12  A    between atoms: C_34  and  C_35 
REMARK   13  A    between atoms: C_35  and  C_36 
REMARK   14  A    between atoms: C_36  and  O_38 
REMARK   15  A    between atoms: C_39  and  C_40 
REMARK   16  A    between atoms: C_40  and  C_41 
REMARK   17  A    between atoms: C_41  and  C_42 
REMARK   18  A    between atoms: C_42  and  O_44 
REMARK   19  A    between atoms: C_45  and  C_46 
REMARK   20  A    between atoms: C_46  and  C_47 
REMARK   21  A    between atoms: C_47  and  O_49 
REMARK   22  A    between atoms: C_50  and  C_51 
REMARK   23  A    between atoms: C_51  and  C_52 
REMARK   24  A    between atoms: C_52  and  O_54 
REMARK   25  A    between atoms: C_55  and  C_56 
REMARK   26  A    between atoms: C_56  and  C_57 
REMARK   27  A    between atoms: C_57  and  C_58 
REMARK   28  A    between atoms: C_58  and  O_60 
ROOT
ATOM      1  O   UNK d   0       9.602   9.687  28.146  0.00  0.00    -0.650 OA
ATOM      2  C   UNK d   0       8.670   8.888  27.904  0.00  0.00     0.139 C 
ENDROOT
BRANCH   2   3
ATOM      3  O   UNK d   0       7.380   9.357  27.839  0.00  0.00    -0.776 OA
ATOM      4  H   UNK d   0       6.691   8.923  27.222  0.00  0.00     0.167 HD
ENDBRANCH   2   3
BRANCH   2   5
ATOM      5  C   UNK d   0       8.960   7.441  27.691  0.00  0.00     0.115 C 
BRANCH   5   6
ATOM      6  C   UNK d   0       9.622   6.861  28.911  0.00  0.00     0.052 C 
BRANCH   6   7
ATOM      7  C   UNK d   0       8.848   5.704  29.497  0.00  0.00    -0.020 A 
ATOM      8  C   UNK d   0       9.119   4.428  29.393  0.00  0.00    -0.011 A 
ATOM      9  C   UNK d   0       8.090   3.695  30.112  0.00  0.00     0.067 A 
ATOM     10  C   UNK d   0       7.818   2.347  30.395  0.00  0.00     0.062 C 
ATOM     11  N   UNK d   0       7.229   4.604  30.617  0.00  0.00    -0.248 NA
ATOM     12  C   UNK d   0       6.923   1.846  31.346  0.00  0.00     0.041 A 
ATOM     13  N   UNK d   0       5.673   2.225  31.674  0.00  0.00    -0.355 N 
ATOM     14  C   UNK d   0       7.340   0.797  32.186  0.00  0.00    -0.022 A 
ATOM     15  C   UNK d   0       5.289   1.449  32.706  0.00  0.00     0.042 A 
ATOM     16  H   UNK d   0       5.067   3.012  31.174  0.00  0.00     0.166 HD
ATOM     17  C   UNK d   0       4.081   1.423  33.429  0.00  0.00     0.062 C 
ATOM     18  C   UNK d   0       6.308   0.541  33.055  0.00  0.00    -0.013 A 
ATOM     19  C   UNK d   0       3.349   2.473  33.924  0.00  0.00     0.067 A 
ATOM     20  N   UNK d   0       3.696   3.697  33.516  0.00  0.00    -0.248 NA
ATOM     21  C   UNK d   0       2.234   2.628  34.843  0.00  0.00    -0.011 A 
ATOM     22  C   UNK d   0       2.889   4.641  34.103  0.00  0.00     0.066 A 
ATOM     23  C   UNK d   0       3.116   5.959  33.736  0.00  0.00     0.062 C 
ATOM     24  C   UNK d   0       1.972   3.899  34.946  0.00  0.00    -0.020 A 
ATOM     25  C   UNK d   0       4.011   6.441  32.768  0.00  0.00     0.041 A 
ATOM     26  N   UNK d   0       5.259   6.074  32.452  0.00  0.00    -0.355 N 
ATOM     27  C   UNK d   0       3.590   7.491  31.923  0.00  0.00    -0.022 A 
ATOM     28  C   UNK d   0       5.647   6.853  31.430  0.00  0.00     0.042 A 
ATOM     29  H   UNK d   0       5.870   5.290  32.962  0.00  0.00     0.166 HD
ATOM     30  C   UNK d   0       6.849   6.895  30.707  0.00  0.00     0.062 C 
ATOM     31  C   UNK d   0       4.619   7.757  31.073  0.00  0.00    -0.013 A 
ATOM     32  C   UNK d   0       7.630   5.831  30.283  0.00  0.00     0.066 A 
BRANCH   8  33
ATOM     33  C   UNK d   0      10.255   3.820  28.677  0.00  0.00     0.151 C 
BRANCH  33  34
ATOM     34  C   UNK d   0       9.886   3.324  27.339  0.00  0.00     0.143 C 
ATOM     35  O   UNK d   0       9.333   4.066  26.514  0.00  0.00    -0.650 OA
BRANCH  34  36
ATOM     36  O   UNK d   0      10.159   2.018  27.004  0.00  0.00    -0.776 OA
ATOM     37  H   UNK d   0      11.089   1.608  27.164  0.00  0.00     0.167 HD
ENDBRANCH  34  36
ENDBRANCH  33  34
ENDBRANCH   8  33
BRANCH  31  38
ATOM     38  C   UNK d   0       4.623   8.798  29.977  0.00  0.00     0.151 C 
BRANCH  38  39
ATOM     39  C   UNK d   0       4.137   8.286  28.714  0.00  0.00     0.143 C 
ATOM     40  O   UNK d   0       4.901   7.862  27.829  0.00  0.00    -0.650 OA
BRANCH  39  41
ATOM     41  O   UNK d   0       2.764   8.259  28.467  0.00  0.00    -0.776 OA
ATOM     42  H   UNK d   0       2.227   7.516  28.925  0.00  0.00     0.167 HD
ENDBRANCH  39  41
ENDBRANCH  38  39
ENDBRANCH  31  38
BRANCH  27  43
ATOM     43  C   UNK d   0       2.277   8.233  31.898  0.00  0.00     0.052 C 
BRANCH  43  44
ATOM     44  C   UNK d   0       2.366   9.610  32.471  0.00  0.00     0.115 C 
BRANCH  44  45
ATOM     45  C   UNK d   0       1.963  10.547  31.390  0.00  0.00     0.139 C 
ATOM     46  O   UNK d   0       2.265  11.760  31.515  0.00  0.00    -0.650 OA
BRANCH  45  47
ATOM     47  O   UNK d   0       1.282  10.139  30.263  0.00  0.00    -0.776 OA
ATOM     48  H   UNK d   0       0.297   9.830  30.285  0.00  0.00     0.167 HD
ENDBRANCH  45  47
ENDBRANCH  44  45
ENDBRANCH  43  44
ENDBRANCH  27  43
BRANCH  24  49
ATOM     49  C   UNK d   0       0.892   4.501  35.746  0.00  0.00     0.052 C 
BRANCH  49  50
ATOM     50  C   UNK d   0       1.342   4.702  37.170  0.00  0.00     0.115 C 
BRANCH  50  51
ATOM     51  C   UNK d   0       0.455   4.222  38.222  0.00  0.00     0.139 C 
ATOM     52  O   UNK d   0       0.457   4.704  39.379  0.00  0.00    -0.650 OA
BRANCH  51  53
ATOM     53  O   UNK d   0      -0.433   3.191  37.954  0.00  0.00    -0.776 OA
ATOM     54  H   UNK d   0      -1.029   2.872  38.697  0.00  0.00     0.167 HD
ENDBRANCH  51  53
ENDBRANCH  50  51
ENDBRANCH  49  50
ENDBRANCH  24  49
BRANCH  21  55
ATOM     55  C   UNK d   0       1.544   1.490  35.518  0.00  0.00     0.151 C 
BRANCH  55  56
ATOM     56  C   UNK d   0       2.164   1.157  36.810  0.00  0.00     0.143 C 
ATOM     57  O   UNK d   0       3.394   1.209  37.001  0.00  0.00    -0.650 OA
BRANCH  56  58
ATOM     58  O   UNK d   0       1.323   0.769  37.852  0.00  0.00    -0.776 OA
ATOM     59  H   UNK d   0       0.687   1.510  38.199  0.00  0.00     0.167 HD
ENDBRANCH  56  58
ENDBRANCH  55  56
ENDBRANCH  21  55
BRANCH  18  60
ATOM     60  C   UNK d   0       6.331  -0.508  34.139  0.00  0.00     0.151 C 
BRANCH  60  61
ATOM     61  C   UNK d   0       6.895   0.150  35.326  0.00  0.00     0.143 C 
ATOM     62  O   UNK d   0       8.087   0.279  35.608  0.00  0.00    -0.650 OA
BRANCH  61  63
ATOM     63  O   UNK d   0       5.944   0.686  36.227  0.00  0.00    -0.776 OA
ATOM     64  H   UNK d   0       6.194   1.414  36.874  0.00  0.00     0.167 HD
ENDBRANCH  61  63
ENDBRANCH  60  61
ENDBRANCH  18  60
BRANCH  14  65
ATOM     65  C   UNK d   0       8.588  -0.039  32.165  0.00  0.00     0.052 C 
BRANCH  65  66
ATOM     66  C   UNK d   0       8.428  -1.303  31.397  0.00  0.00     0.115 C 
BRANCH  66  67
ATOM     67  C   UNK d   0       7.613  -1.320  30.216  0.00  0.00     0.139 C 
ATOM     68  O   UNK d   0       8.141  -0.960  29.100  0.00  0.00    -0.650 OA
BRANCH  67  69
ATOM     69  O   UNK d   0       6.272  -1.688  30.110  0.00  0.00    -0.776 OA
ATOM     70  H   UNK d   0       6.018  -2.587  30.544  0.00  0.00     0.167 HD
ENDBRANCH  67  69
ENDBRANCH  66  67
ENDBRANCH  65  66
ENDBRANCH  14  65
ENDBRANCH   6   7
ENDBRANCH   5   6
ENDBRANCH   2   5
TORSDOF 28
ENDMDL
