MODEL 1
REMARK VINA RESULT:      -9.6      0.000      0.000
REMARK  28 active torsions:
REMARK  status: ('A' for Active; 'I' for Inactive)
REMARK    1  A    between atoms: C_2  and  O_3 
REMARK    2  A    between atoms: C_2  and  C_4 
REMARK    3  A    between atoms: C_4  and  C_5 
REMARK    4  A    between atoms: C_5  and  C_6 
REMARK    5  A    between atoms: C_7  and  C_8 
REMARK    6  A    between atoms: C_8  and  C_9 
REMARK    7  A    between atoms: C_9  and  O_11 
REMARK    8  A    between atoms: C_28  and  C_29 
REMARK    9  A    between atoms: C_29  and  C_30 
REMARK   10  A    between atoms: C_30  and  O_32 
REMARK   11  A    between atoms: C_33  and  C_34 
REMARK   12  A    between atoms: C_34  and  C_35 
REMARK   13  A    between atoms: C_35  and  C_36 
REMARK   14  A    between atoms: C_36  and  O_38 
REMARK   15  A    between atoms: C_39  and  C_40 
REMARK   16  A    between atoms: C_40  and  C_41 
REMARK   17  A    between atoms: C_41  and  C_42 
REMARK   18  A    between atoms: C_42  and  O_44 
REMARK   19  A    between atoms: C_45  and  C_46 
REMARK   20  A    between atoms: C_46  and  C_47 
REMARK   21  A    between atoms: C_47  and  O_49 
REMARK   22  A    between atoms: C_50  and  C_51 
REMARK   23  A    between atoms: C_51  and  C_52 
REMARK   24  A    between atoms: C_52  and  O_54 
REMARK   25  A    between atoms: C_55  and  C_56 
REMARK   26  A    between atoms: C_56  and  C_57 
REMARK   27  A    between atoms: C_57  and  C_58 
REMARK   28  A    between atoms: C_58  and  O_60 
ROOT
ATOM      1  O   UNK d   0       8.756 -17.128  -8.812  0.00  0.00    -0.650 OA
ATOM      2  C   UNK d   0       7.571 -16.745  -8.687  0.00  0.00     0.139 C 
ENDROOT
BRANCH   2   3
ATOM      3  O   UNK d   0       6.582 -17.673  -8.472  0.00  0.00    -0.776 OA
ATOM      4  H   UNK d   0       6.354 -18.375  -9.180  0.00  0.00     0.167 HD
ENDBRANCH   2   3
BRANCH   2   5
ATOM      5  C   UNK d   0       7.242 -15.293  -8.770  0.00  0.00     0.115 C 
BRANCH   5   6
ATOM      6  C   UNK d   0       8.322 -14.560  -9.518  0.00  0.00     0.052 C 
BRANCH   6   7
ATOM      7  C   UNK d   0       9.082 -13.593  -8.642  0.00  0.00    -0.020 A 
ATOM      8  C   UNK d   0       9.620 -12.453  -8.991  0.00  0.00    -0.011 A 
ATOM      9  C   UNK d   0      10.251 -11.880  -7.814  0.00  0.00     0.067 A 
ATOM     10  C   UNK d   0      10.958 -10.704  -7.514  0.00  0.00     0.062 C 
ATOM     11  N   UNK d   0      10.053 -12.740  -6.793  0.00  0.00    -0.248 NA
ATOM     12  C   UNK d   0      11.251 -10.192  -6.246  0.00  0.00     0.041 A 
ATOM     13  N   UNK d   0      11.676 -10.799  -5.121  0.00  0.00    -0.355 N 
ATOM     14  C   UNK d   0      11.045  -8.822  -6.001  0.00  0.00    -0.022 A 
ATOM     15  C   UNK d   0      11.736  -9.851  -4.167  0.00  0.00     0.042 A 
ATOM     16  H   UNK d   0      11.946 -11.872  -5.009  0.00  0.00     0.166 HD
ATOM     17  C   UNK d   0      12.116  -9.941  -2.813  0.00  0.00     0.062 C 
ATOM     18  C   UNK d   0      11.347  -8.599  -4.681  0.00  0.00    -0.013 A 
ATOM     19  C   UNK d   0      11.768 -10.884  -1.880  0.00  0.00     0.067 A 
ATOM     20  N   UNK d   0      11.149 -11.979  -2.329  0.00  0.00    -0.248 NA
ATOM     21  C   UNK d   0      11.885 -11.020  -0.438  0.00  0.00    -0.011 A 
ATOM     22  C   UNK d   0      10.851 -12.820  -1.285  0.00  0.00     0.066 A 
ATOM     23  C   UNK d   0      10.237 -14.019  -1.615  0.00  0.00     0.062 C 
ATOM     24  C   UNK d   0      11.343 -12.152  -0.095  0.00  0.00    -0.020 A 
ATOM     25  C   UNK d   0       9.962 -14.520  -2.896  0.00  0.00     0.041 A 
ATOM     26  N   UNK d   0       9.526 -13.920  -4.010  0.00  0.00    -0.355 N 
ATOM     27  C   UNK d   0      10.174 -15.894  -3.143  0.00  0.00    -0.022 A 
ATOM     28  C   UNK d   0       9.457 -14.865  -4.961  0.00  0.00     0.042 A 
ATOM     29  H   UNK d   0       9.245 -12.844  -4.118  0.00  0.00     0.166 HD
ATOM     30  C   UNK d   0       9.071 -14.791  -6.309  0.00  0.00     0.062 C 
ATOM     31  C   UNK d   0       9.858 -16.121  -4.447  0.00  0.00    -0.013 A 
ATOM     32  C   UNK d   0       9.355 -13.792  -7.226  0.00  0.00     0.066 A 
BRANCH   8  33
ATOM     33  C   UNK d   0       9.607 -11.842 -10.333  0.00  0.00     0.151 C 
BRANCH  33  34
ATOM     34  C   UNK d   0      10.894 -11.218 -10.688  0.00  0.00     0.143 C 
ATOM     35  O   UNK d   0      10.960 -10.015 -10.977  0.00  0.00    -0.650 OA
BRANCH  34  36
ATOM     36  O   UNK d   0      12.037 -11.985 -10.700  0.00  0.00    -0.776 OA
ATOM     37  H   UNK d   0      11.990 -13.012 -10.711  0.00  0.00     0.167 HD
ENDBRANCH  34  36
ENDBRANCH  33  34
ENDBRANCH   8  33
BRANCH  31  38
ATOM     38  C   UNK d   0       9.942 -17.446  -5.168  0.00  0.00     0.151 C 
BRANCH  38  39
ATOM     39  C   UNK d   0       8.666 -18.123  -5.251  0.00  0.00     0.143 C 
ATOM     40  O   UNK d   0       7.780 -17.981  -4.389  0.00  0.00    -0.650 OA
BRANCH  39  41
ATOM     41  O   UNK d   0       8.405 -18.966  -6.330  0.00  0.00    -0.776 OA
ATOM     42  H   UNK d   0       9.212 -19.269  -6.885  0.00  0.00     0.167 HD
ENDBRANCH  39  41
ENDBRANCH  38  39
ENDBRANCH  31  38
BRANCH  27  43
ATOM     43  C   UNK d   0      10.653 -16.974  -2.204  0.00  0.00     0.052 C 
BRANCH  43  44
ATOM     44  C   UNK d   0      12.100 -17.305  -2.375  0.00  0.00     0.115 C 
BRANCH  44  45
ATOM     45  C   UNK d   0      12.847 -16.447  -1.419  0.00  0.00     0.139 C 
ATOM     46  O   UNK d   0      13.303 -15.354  -1.836  0.00  0.00    -0.650 OA
BRANCH  45  47
ATOM     47  O   UNK d   0      13.053 -16.798  -0.102  0.00  0.00    -0.776 OA
ATOM     48  H   UNK d   0      13.780 -17.471   0.192  0.00  0.00     0.167 HD
ENDBRANCH  45  47
ENDBRANCH  44  45
ENDBRANCH  43  44
ENDBRANCH  27  43
BRANCH  24  49
ATOM     49  C   UNK d   0      11.277 -12.706   1.268  0.00  0.00     0.052 C 
BRANCH  49  50
ATOM     50  C   UNK d   0      10.274 -11.944   2.096  0.00  0.00     0.115 C 
BRANCH  50  51
ATOM     51  C   UNK d   0      10.704 -11.492   3.412  0.00  0.00     0.139 C 
ATOM     52  O   UNK d   0      11.111 -10.326   3.627  0.00  0.00    -0.650 OA
BRANCH  51  53
ATOM     53  O   UNK d   0      10.673 -12.371   4.483  0.00  0.00    -0.776 OA
ATOM     54  H   UNK d   0      11.244 -12.165   5.284  0.00  0.00     0.167 HD
ENDBRANCH  51  53
ENDBRANCH  50  51
ENDBRANCH  49  50
ENDBRANCH  24  49
BRANCH  21  55
ATOM     55  C   UNK d   0      12.531 -10.005   0.447  0.00  0.00     0.151 C 
BRANCH  55  56
ATOM     56  C   UNK d   0      13.995 -10.148   0.473  0.00  0.00     0.143 C 
ATOM     57  O   UNK d   0      14.656 -10.506  -0.521  0.00  0.00    -0.650 OA
BRANCH  56  58
ATOM     58  O   UNK d   0      14.653  -9.867   1.669  0.00  0.00    -0.776 OA
ATOM     59  H   UNK d   0      15.682  -9.978   1.637  0.00  0.00     0.167 HD
ENDBRANCH  56  58
ENDBRANCH  55  56
ENDBRANCH  21  55
BRANCH  18  60
ATOM     60  C   UNK d   0      11.256  -7.262  -3.987  0.00  0.00     0.151 C 
BRANCH  60  61
ATOM     61  C   UNK d   0      12.642  -6.800  -3.816  0.00  0.00     0.143 C 
ATOM     62  O   UNK d   0      13.428  -6.466  -4.704  0.00  0.00    -0.650 OA
BRANCH  61  63
ATOM     63  O   UNK d   0      13.097  -6.743  -2.477  0.00  0.00    -0.776 OA
ATOM     64  H   UNK d   0      12.473  -6.502  -1.727  0.00  0.00     0.167 HD
ENDBRANCH  61  63
ENDBRANCH  60  61
ENDBRANCH  18  60
BRANCH  14  65
ATOM     65  C   UNK d   0      10.682  -7.702  -6.934  0.00  0.00     0.052 C 
BRANCH  65  66
ATOM     66  C   UNK d   0      11.859  -6.903  -7.369  0.00  0.00     0.115 C 
BRANCH  66  67
ATOM     67  C   UNK d   0      11.696  -5.513  -7.691  0.00  0.00     0.139 C 
ATOM     68  O   UNK d   0      10.909  -4.803  -6.962  0.00  0.00    -0.650 OA
BRANCH  67  69
ATOM     69  O   UNK d   0      12.298  -4.801  -8.727  0.00  0.00    -0.776 OA
ATOM     70  H   UNK d   0      12.954  -4.060  -8.439  0.00  0.00     0.167 HD
ENDBRANCH  67  69
ENDBRANCH  66  67
ENDBRANCH  65  66
ENDBRANCH  14  65
ENDBRANCH   6   7
ENDBRANCH   5   6
ENDBRANCH   2   5
TORSDOF 28
ENDMDL
MODEL 2
REMARK VINA RESULT:      -9.3      1.497      9.912
REMARK  28 active torsions:
REMARK  status: ('A' for Active; 'I' for Inactive)
REMARK    1  A    between atoms: C_2  and  O_3 
REMARK    2  A    between atoms: C_2  and  C_4 
REMARK    3  A    between atoms: C_4  and  C_5 
REMARK    4  A    between atoms: C_5  and  C_6 
REMARK    5  A    between atoms: C_7  and  C_8 
REMARK    6  A    between atoms: C_8  and  C_9 
REMARK    7  A    between atoms: C_9  and  O_11 
REMARK    8  A    between atoms: C_28  and  C_29 
REMARK    9  A    between atoms: C_29  and  C_30 
REMARK   10  A    between atoms: C_30  and  O_32 
REMARK   11  A    between atoms: C_33  and  C_34 
REMARK   12  A    between atoms: C_34  and  C_35 
REMARK   13  A    between atoms: C_35  and  C_36 
REMARK   14  A    between atoms: C_36  and  O_38 
REMARK   15  A    between atoms: C_39  and  C_40 
REMARK   16  A    between atoms: C_40  and  C_41 
REMARK   17  A    between atoms: C_41  and  C_42 
REMARK   18  A    between atoms: C_42  and  O_44 
REMARK   19  A    between atoms: C_45  and  C_46 
REMARK   20  A    between atoms: C_46  and  C_47 
REMARK   21  A    between atoms: C_47  and  O_49 
REMARK   22  A    between atoms: C_50  and  C_51 
REMARK   23  A    between atoms: C_51  and  C_52 
REMARK   24  A    between atoms: C_52  and  O_54 
REMARK   25  A    between atoms: C_55  and  C_56 
REMARK   26  A    between atoms: C_56  and  C_57 
REMARK   27  A    between atoms: C_57  and  C_58 
REMARK   28  A    between atoms: C_58  and  O_60 
ROOT
ATOM      1  O   UNK d   0       9.955 -12.813   3.842  0.00  0.00    -0.650 OA
ATOM      2  C   UNK d   0      10.882 -12.612   3.026  0.00  0.00     0.139 C 
ENDROOT
BRANCH   2   3
ATOM      3  O   UNK d   0      12.171 -12.489   3.487  0.00  0.00    -0.776 OA
ATOM      4  H   UNK d   0      12.964 -12.816   2.932  0.00  0.00     0.167 HD
ENDBRANCH   2   3
BRANCH   2   5
ATOM      5  C   UNK d   0      10.587 -12.508   1.569  0.00  0.00     0.115 C 
BRANCH   5   6
ATOM      6  C   UNK d   0       9.814 -13.714   1.110  0.00  0.00     0.052 C 
BRANCH   6   7
ATOM      7  C   UNK d   0       9.826 -13.876  -0.391  0.00  0.00    -0.020 A 
ATOM      8  C   UNK d   0       9.491 -14.935  -1.083  0.00  0.00    -0.011 A 
ATOM      9  C   UNK d   0       9.673 -14.624  -2.491  0.00  0.00     0.067 A 
ATOM     10  C   UNK d   0       9.480 -15.293  -3.709  0.00  0.00     0.062 C 
ATOM     11  N   UNK d   0      10.128 -13.355  -2.565  0.00  0.00    -0.248 NA
ATOM     12  C   UNK d   0       9.448 -14.730  -4.989  0.00  0.00     0.041 A 
ATOM     13  N   UNK d   0      10.223 -13.791  -5.565  0.00  0.00    -0.355 N 
ATOM     14  C   UNK d   0       8.427 -15.116  -5.877  0.00  0.00    -0.022 A 
ATOM     15  C   UNK d   0       9.716 -13.565  -6.791  0.00  0.00     0.042 A 
ATOM     16  H   UNK d   0      11.123 -13.311  -5.120  0.00  0.00     0.166 HD
ATOM     17  C   UNK d   0      10.140 -12.686  -7.808  0.00  0.00     0.062 C 
ATOM     18  C   UNK d   0       8.589 -14.377  -7.023  0.00  0.00    -0.013 A 
ATOM     19  C   UNK d   0      10.527 -11.375  -7.707  0.00  0.00     0.067 A 
ATOM     20  N   UNK d   0      10.727 -10.896  -6.477  0.00  0.00    -0.248 NA
ATOM     21  C   UNK d   0      10.783 -10.287  -8.636  0.00  0.00    -0.011 A 
ATOM     22  C   UNK d   0      11.094  -9.573  -6.534  0.00  0.00     0.066 A 
ATOM     23  C   UNK d   0      11.371  -8.958  -5.322  0.00  0.00     0.062 C 
ATOM     24  C   UNK d   0      11.110  -9.234  -7.943  0.00  0.00    -0.020 A 
ATOM     25  C   UNK d   0      11.411  -9.545  -4.048  0.00  0.00     0.041 A 
ATOM     26  N   UNK d   0      10.631 -10.467  -3.471  0.00  0.00    -0.355 N 
ATOM     27  C   UNK d   0      12.438  -9.160  -3.159  0.00  0.00    -0.022 A 
ATOM     28  C   UNK d   0      11.130 -10.687  -2.244  0.00  0.00     0.042 A 
ATOM     29  H   UNK d   0       9.721 -10.940  -3.915  0.00  0.00     0.166 HD
ATOM     30  C   UNK d   0      10.713 -11.551  -1.220  0.00  0.00     0.062 C 
ATOM     31  C   UNK d   0      12.268  -9.878  -2.016  0.00  0.00    -0.013 A 
ATOM     32  C   UNK d   0      10.241 -12.849  -1.336  0.00  0.00     0.066 A 
BRANCH   8  33
ATOM     33  C   UNK d   0       9.017 -16.226  -0.550  0.00  0.00     0.151 C 
BRANCH  33  34
ATOM     34  C   UNK d   0       9.661 -17.382  -1.200  0.00  0.00     0.143 C 
ATOM     35  O   UNK d   0       8.994 -18.365  -1.556  0.00  0.00    -0.650 OA
BRANCH  34  36
ATOM     36  O   UNK d   0      11.020 -17.369  -1.410  0.00  0.00    -0.776 OA
ATOM     37  H   UNK d   0      11.476 -16.591  -1.907  0.00  0.00     0.167 HD
ENDBRANCH  34  36
ENDBRANCH  33  34
ENDBRANCH   8  33
BRANCH  31  38
ATOM     38  C   UNK d   0      13.141  -9.813  -0.784  0.00  0.00     0.151 C 
BRANCH  38  39
ATOM     39  C   UNK d   0      14.446 -10.404  -0.988  0.00  0.00     0.143 C 
ATOM     40  O   UNK d   0      15.463  -9.992  -0.403  0.00  0.00    -0.650 OA
BRANCH  39  41
ATOM     41  O   UNK d   0      14.583 -11.477  -1.869  0.00  0.00    -0.776 OA
ATOM     42  H   UNK d   0      13.730 -11.995  -2.102  0.00  0.00     0.167 HD
ENDBRANCH  39  41
ENDBRANCH  38  39
ENDBRANCH  31  38
BRANCH  27  43
ATOM     43  C   UNK d   0      13.547  -8.156  -3.353  0.00  0.00     0.052 C 
BRANCH  43  44
ATOM     44  C   UNK d   0      13.078  -6.739  -3.297  0.00  0.00     0.115 C 
BRANCH  44  45
ATOM     45  C   UNK d   0      14.091  -5.987  -2.511  0.00  0.00     0.139 C 
ATOM     46  O   UNK d   0      15.114  -6.603  -2.122  0.00  0.00    -0.650 OA
BRANCH  45  47
ATOM     47  O   UNK d   0      13.955  -4.652  -2.200  0.00  0.00    -0.776 OA
ATOM     48  H   UNK d   0      13.054  -4.229  -1.924  0.00  0.00     0.167 HD
ENDBRANCH  45  47
ENDBRANCH  44  45
ENDBRANCH  43  44
ENDBRANCH  27  43
BRANCH  24  49
ATOM     49  C   UNK d   0      11.489  -7.919  -8.488  0.00  0.00     0.052 C 
BRANCH  49  50
ATOM     50  C   UNK d   0      11.749  -6.944  -7.368  0.00  0.00     0.115 C 
BRANCH  50  51
ATOM     51  C   UNK d   0      11.523  -5.532  -7.651  0.00  0.00     0.139 C 
ATOM     52  O   UNK d   0      10.736  -4.826  -6.977  0.00  0.00    -0.650 OA
BRANCH  51  53
ATOM     53  O   UNK d   0      12.193  -4.927  -8.703  0.00  0.00    -0.776 OA
ATOM     54  H   UNK d   0      12.699  -4.079  -8.519  0.00  0.00     0.167 HD
ENDBRANCH  51  53
ENDBRANCH  50  51
ENDBRANCH  49  50
ENDBRANCH  24  49
BRANCH  21  55
ATOM     55  C   UNK d   0      10.678 -10.414 -10.120  0.00  0.00     0.151 C 
BRANCH  55  56
ATOM     56  C   UNK d   0      11.906 -10.964 -10.715  0.00  0.00     0.143 C 
ATOM     57  O   UNK d   0      12.054 -12.178 -10.955  0.00  0.00    -0.650 OA
BRANCH  56  58
ATOM     58  O   UNK d   0      12.936 -10.074 -11.016  0.00  0.00    -0.776 OA
ATOM     59  H   UNK d   0      13.752 -10.119 -10.379  0.00  0.00     0.167 HD
ENDBRANCH  56  58
ENDBRANCH  55  56
ENDBRANCH  21  55
BRANCH  18  60
ATOM     60  C   UNK d   0       7.703 -14.466  -8.241  0.00  0.00     0.151 C 
BRANCH  60  61
ATOM     61  C   UNK d   0       8.346 -15.438  -9.139  0.00  0.00     0.143 C 
ATOM     62  O   UNK d   0       8.797 -16.543  -8.835  0.00  0.00    -0.650 OA
BRANCH  61  63
ATOM     63  O   UNK d   0       8.444 -15.034 -10.492  0.00  0.00    -0.776 OA
ATOM     64  H   UNK d   0       7.622 -14.839 -11.035  0.00  0.00     0.167 HD
ENDBRANCH  61  63
ENDBRANCH  60  61
ENDBRANCH  18  60
BRANCH  14  65
ATOM     65  C   UNK d   0       7.381 -16.188  -5.763  0.00  0.00     0.052 C 
BRANCH  65  66
ATOM     66  C   UNK d   0       7.916 -17.552  -6.025  0.00  0.00     0.115 C 
BRANCH  66  67
ATOM     67  C   UNK d   0       8.194 -18.431  -4.924  0.00  0.00     0.139 C 
ATOM     68  O   UNK d   0       9.373 -18.935  -4.825  0.00  0.00    -0.650 OA
BRANCH  67  69
ATOM     69  O   UNK d   0       7.325 -18.827  -3.908  0.00  0.00    -0.776 OA
ATOM     70  H   UNK d   0       6.680 -19.595  -4.144  0.00  0.00     0.167 HD
ENDBRANCH  67  69
ENDBRANCH  66  67
ENDBRANCH  65  66
ENDBRANCH  14  65
ENDBRANCH   6   7
ENDBRANCH   5   6
ENDBRANCH   2   5
TORSDOF 28
ENDMDL
MODEL 3
REMARK VINA RESULT:      -9.2      1.619     10.109
REMARK  28 active torsions:
REMARK  status: ('A' for Active; 'I' for Inactive)
REMARK    1  A    between atoms: C_2  and  O_3 
REMARK    2  A    between atoms: C_2  and  C_4 
REMARK    3  A    between atoms: C_4  and  C_5 
REMARK    4  A    between atoms: C_5  and  C_6 
REMARK    5  A    between atoms: C_7  and  C_8 
REMARK    6  A    between atoms: C_8  and  C_9 
REMARK    7  A    between atoms: C_9  and  O_11 
REMARK    8  A    between atoms: C_28  and  C_29 
REMARK    9  A    between atoms: C_29  and  C_30 
REMARK   10  A    between atoms: C_30  and  O_32 
REMARK   11  A    between atoms: C_33  and  C_34 
REMARK   12  A    between atoms: C_34  and  C_35 
REMARK   13  A    between atoms: C_35  and  C_36 
REMARK   14  A    between atoms: C_36  and  O_38 
REMARK   15  A    between atoms: C_39  and  C_40 
REMARK   16  A    between atoms: C_40  and  C_41 
REMARK   17  A    between atoms: C_41  and  C_42 
REMARK   18  A    between atoms: C_42  and  O_44 
REMARK   19  A    between atoms: C_45  and  C_46 
REMARK   20  A    between atoms: C_46  and  C_47 
REMARK   21  A    between atoms: C_47  and  O_49 
REMARK   22  A    between atoms: C_50  and  C_51 
REMARK   23  A    between atoms: C_51  and  C_52 
REMARK   24  A    between atoms: C_52  and  O_54 
REMARK   25  A    between atoms: C_55  and  C_56 
REMARK   26  A    between atoms: C_56  and  C_57 
REMARK   27  A    between atoms: C_57  and  C_58 
REMARK   28  A    between atoms: C_58  and  O_60 
ROOT
ATOM      1  O   UNK d   0      15.025  -5.310  -3.826  0.00  0.00    -0.650 OA
ATOM      2  C   UNK d   0      14.398  -5.559  -2.772  0.00  0.00     0.139 C 
ENDROOT
BRANCH   2   3
ATOM      3  O   UNK d   0      13.965  -4.520  -1.984  0.00  0.00    -0.776 OA
ATOM      4  H   UNK d   0      14.317  -3.571  -2.123  0.00  0.00     0.167 HD
ENDBRANCH   2   3
BRANCH   2   5
ATOM      5  C   UNK d   0      14.126  -6.971  -2.380  0.00  0.00     0.115 C 
BRANCH   5   6
ATOM      6  C   UNK d   0      12.689  -7.318  -2.658  0.00  0.00     0.052 C 
BRANCH   6   7
ATOM      7  C   UNK d   0      12.418  -8.800  -2.554  0.00  0.00    -0.020 A 
ATOM      8  C   UNK d   0      12.596  -9.572  -1.513  0.00  0.00    -0.011 A 
ATOM      9  C   UNK d   0      12.207 -10.922  -1.888  0.00  0.00     0.067 A 
ATOM     10  C   UNK d   0      12.139 -12.170  -1.250  0.00  0.00     0.062 C 
ATOM     11  N   UNK d   0      11.811 -10.880  -3.177  0.00  0.00    -0.248 NA
ATOM     12  C   UNK d   0      11.470 -13.315  -1.697  0.00  0.00     0.041 A 
ATOM     13  N   UNK d   0      11.389 -13.873  -2.920  0.00  0.00    -0.355 N 
ATOM     14  C   UNK d   0      10.677 -14.038  -0.788  0.00  0.00    -0.022 A 
ATOM     15  C   UNK d   0      10.559 -14.927  -2.812  0.00  0.00     0.042 A 
ATOM     16  H   UNK d   0      11.924 -13.540  -3.837  0.00  0.00     0.166 HD
ATOM     17  C   UNK d   0      10.129 -15.855  -3.782  0.00  0.00     0.062 C 
ATOM     18  C   UNK d   0      10.092 -15.063  -1.490  0.00  0.00    -0.013 A 
ATOM     19  C   UNK d   0       9.700 -15.625  -5.064  0.00  0.00     0.067 A 
ATOM     20  N   UNK d   0       9.886 -14.396  -5.553  0.00  0.00    -0.248 NA
ATOM     21  C   UNK d   0       9.040 -16.402  -6.100  0.00  0.00    -0.011 A 
ATOM     22  C   UNK d   0       9.395 -14.313  -6.833  0.00  0.00     0.066 A 
ATOM     23  C   UNK d   0       9.557 -13.096  -7.478  0.00  0.00     0.062 C 
ATOM     24  C   UNK d   0       8.861 -15.628  -7.131  0.00  0.00    -0.020 A 
ATOM     25  C   UNK d   0      10.244 -11.963  -7.016  0.00  0.00     0.041 A 
ATOM     26  N   UNK d   0      10.312 -11.399  -5.804  0.00  0.00    -0.355 N 
ATOM     27  C   UNK d   0      11.043 -11.239  -7.928  0.00  0.00    -0.022 A 
ATOM     28  C   UNK d   0      11.133 -10.342  -5.911  0.00  0.00     0.042 A 
ATOM     29  H   UNK d   0       9.767 -11.729  -4.886  0.00  0.00     0.166 HD
ATOM     30  C   UNK d   0      11.562  -9.406  -4.957  0.00  0.00     0.062 C 
ATOM     31  C   UNK d   0      11.610 -10.213  -7.237  0.00  0.00    -0.013 A 
ATOM     32  C   UNK d   0      11.914  -9.632  -3.636  0.00  0.00     0.066 A 
BRANCH   8  33
ATOM     33  C   UNK d   0      13.103  -9.169  -0.188  0.00  0.00     0.151 C 
BRANCH  33  34
ATOM     34  C   UNK d   0      14.450  -9.699   0.093  0.00  0.00     0.143 C 
ATOM     35  O   UNK d   0      15.260  -9.895  -0.824  0.00  0.00    -0.650 OA
BRANCH  34  36
ATOM     36  O   UNK d   0      14.809  -9.979   1.391  0.00  0.00    -0.776 OA
ATOM     37  H   UNK d   0      14.106 -10.247   2.093  0.00  0.00     0.167 HD
ENDBRANCH  34  36
ENDBRANCH  33  34
ENDBRANCH   8  33
BRANCH  31  38
ATOM     38  C   UNK d   0      12.558  -9.178  -7.797  0.00  0.00     0.151 C 
BRANCH  38  39
ATOM     39  C   UNK d   0      11.891  -7.949  -8.170  0.00  0.00     0.143 C 
ATOM     40  O   UNK d   0      11.737  -7.007  -7.374  0.00  0.00    -0.650 OA
BRANCH  39  41
ATOM     41  O   UNK d   0      11.399  -7.802  -9.467  0.00  0.00    -0.776 OA
ATOM     42  H   UNK d   0      10.495  -7.330  -9.567  0.00  0.00     0.167 HD
ENDBRANCH  39  41
ENDBRANCH  38  39
ENDBRANCH  31  38
BRANCH  27  43
ATOM     43  C   UNK d   0      11.279 -11.483  -9.398  0.00  0.00     0.052 C 
BRANCH  43  44
ATOM     44  C   UNK d   0      10.150 -11.023 -10.262  0.00  0.00     0.115 C 
BRANCH  44  45
ATOM     45  C   UNK d   0       9.338 -12.228 -10.575  0.00  0.00     0.139 C 
ATOM     46  O   UNK d   0       8.107 -12.192 -10.328  0.00  0.00    -0.650 OA
BRANCH  45  47
ATOM     47  O   UNK d   0       9.877 -13.370 -11.126  0.00  0.00    -0.776 OA
ATOM     48  H   UNK d   0      10.851 -13.669 -10.955  0.00  0.00     0.167 HD
ENDBRANCH  45  47
ENDBRANCH  44  45
ENDBRANCH  43  44
ENDBRANCH  27  43
BRANCH  24  49
ATOM     49  C   UNK d   0       8.261 -16.020  -8.418  0.00  0.00     0.052 C 
BRANCH  49  50
ATOM     50  C   UNK d   0       6.775 -15.773  -8.401  0.00  0.00     0.115 C 
BRANCH  50  51
ATOM     51  C   UNK d   0       5.906 -16.939  -8.493  0.00  0.00     0.139 C 
ATOM     52  O   UNK d   0       4.659 -16.862  -8.392  0.00  0.00    -0.650 OA
BRANCH  51  53
ATOM     53  O   UNK d   0       6.460 -18.193  -8.696  0.00  0.00    -0.776 OA
ATOM     54  H   UNK d   0       6.528 -18.816  -7.910  0.00  0.00     0.167 HD
ENDBRANCH  51  53
ENDBRANCH  50  51
ENDBRANCH  49  50
ENDBRANCH  24  49
BRANCH  21  55
ATOM     55  C   UNK d   0       8.662 -17.839  -5.953  0.00  0.00     0.151 C 
BRANCH  55  56
ATOM     56  C   UNK d   0       9.766 -18.740  -6.317  0.00  0.00     0.143 C 
ATOM     57  O   UNK d   0      10.547 -19.225  -5.475  0.00  0.00    -0.650 OA
BRANCH  56  58
ATOM     58  O   UNK d   0       9.931 -19.053  -7.666  0.00  0.00    -0.776 OA
ATOM     59  H   UNK d   0       9.442 -18.419  -8.323  0.00  0.00     0.167 HD
ENDBRANCH  56  58
ENDBRANCH  55  56
ENDBRANCH  21  55
BRANCH  18  60
ATOM     60  C   UNK d   0       9.150 -16.085  -0.904  0.00  0.00     0.151 C 
BRANCH  60  61
ATOM     61  C   UNK d   0       9.716 -17.399  -1.246  0.00  0.00     0.143 C 
ATOM     62  O   UNK d   0       9.097 -18.406  -1.591  0.00  0.00    -0.650 OA
BRANCH  61  63
ATOM     63  O   UNK d   0      11.126 -17.488  -1.163  0.00  0.00    -0.776 OA
ATOM     64  H   UNK d   0      11.595 -18.374  -1.230  0.00  0.00     0.167 HD
ENDBRANCH  61  63
ENDBRANCH  60  61
ENDBRANCH  18  60
BRANCH  14  65
ATOM     65  C   UNK d   0      10.510 -13.895   0.698  0.00  0.00     0.052 C 
BRANCH  65  66
ATOM     66  C   UNK d   0      10.182 -12.506   1.115  0.00  0.00     0.115 C 
BRANCH  66  67
ATOM     67  C   UNK d   0      10.861 -11.921   2.237  0.00  0.00     0.139 C 
ATOM     68  O   UNK d   0      10.315 -12.008   3.398  0.00  0.00    -0.650 OA
BRANCH  67  69
ATOM     69  O   UNK d   0      12.079 -11.243   2.238  0.00  0.00    -0.776 OA
ATOM     70  H   UNK d   0      12.921 -11.835   2.207  0.00  0.00     0.167 HD
ENDBRANCH  67  69
ENDBRANCH  66  67
ENDBRANCH  65  66
ENDBRANCH  14  65
ENDBRANCH   6   7
ENDBRANCH   5   6
ENDBRANCH   2   5
TORSDOF 28
ENDMDL
MODEL 4
REMARK VINA RESULT:      -9.2      1.617      2.073
REMARK  28 active torsions:
REMARK  status: ('A' for Active; 'I' for Inactive)
REMARK    1  A    between atoms: C_2  and  O_3 
REMARK    2  A    between atoms: C_2  and  C_4 
REMARK    3  A    between atoms: C_4  and  C_5 
REMARK    4  A    between atoms: C_5  and  C_6 
REMARK    5  A    between atoms: C_7  and  C_8 
REMARK    6  A    between atoms: C_8  and  C_9 
REMARK    7  A    between atoms: C_9  and  O_11 
REMARK    8  A    between atoms: C_28  and  C_29 
REMARK    9  A    between atoms: C_29  and  C_30 
REMARK   10  A    between atoms: C_30  and  O_32 
REMARK   11  A    between atoms: C_33  and  C_34 
REMARK   12  A    between atoms: C_34  and  C_35 
REMARK   13  A    between atoms: C_35  and  C_36 
REMARK   14  A    between atoms: C_36  and  O_38 
REMARK   15  A    between atoms: C_39  and  C_40 
REMARK   16  A    between atoms: C_40  and  C_41 
REMARK   17  A    between atoms: C_41  and  C_42 
REMARK   18  A    between atoms: C_42  and  O_44 
REMARK   19  A    between atoms: C_45  and  C_46 
REMARK   20  A    between atoms: C_46  and  C_47 
REMARK   21  A    between atoms: C_47  and  O_49 
REMARK   22  A    between atoms: C_50  and  C_51 
REMARK   23  A    between atoms: C_51  and  C_52 
REMARK   24  A    between atoms: C_52  and  O_54 
REMARK   25  A    between atoms: C_55  and  C_56 
REMARK   26  A    between atoms: C_56  and  C_57 
REMARK   27  A    between atoms: C_57  and  C_58 
REMARK   28  A    between atoms: C_58  and  O_60 
ROOT
ATOM      1  O   UNK d   0       5.107 -17.084  -6.187  0.00  0.00    -0.650 OA
ATOM      2  C   UNK d   0       6.014 -17.053  -7.047  0.00  0.00     0.139 C 
ENDROOT
BRANCH   2   3
ATOM      3  O   UNK d   0       6.781 -18.174  -7.258  0.00  0.00    -0.776 OA
ATOM      4  H   UNK d   0       7.774 -18.098  -7.490  0.00  0.00     0.167 HD
ENDBRANCH   2   3
BRANCH   2   5
ATOM      5  C   UNK d   0       6.259 -15.810  -7.833  0.00  0.00     0.115 C 
BRANCH   5   6
ATOM      6  C   UNK d   0       7.631 -15.849  -8.449  0.00  0.00     0.052 C 
BRANCH   6   7
ATOM      7  C   UNK d   0       8.544 -14.777  -7.903  0.00  0.00    -0.020 A 
ATOM      8  C   UNK d   0       9.094 -13.787  -8.559  0.00  0.00    -0.011 A 
ATOM      9  C   UNK d   0       9.896 -13.022  -7.618  0.00  0.00     0.067 A 
ATOM     10  C   UNK d   0      10.695 -11.869  -7.673  0.00  0.00     0.062 C 
ATOM     11  N   UNK d   0       9.780 -13.619  -6.414  0.00  0.00    -0.248 NA
ATOM     12  C   UNK d   0      11.171 -11.116  -6.594  0.00  0.00     0.041 A 
ATOM     13  N   UNK d   0      11.698 -11.493  -5.414  0.00  0.00    -0.355 N 
ATOM     14  C   UNK d   0      11.069  -9.714  -6.645  0.00  0.00    -0.022 A 
ATOM     15  C   UNK d   0      11.926 -10.367  -4.712  0.00  0.00     0.042 A 
ATOM     16  H   UNK d   0      11.923 -12.534  -5.091  0.00  0.00     0.166 HD
ATOM     17  C   UNK d   0      12.466 -10.188  -3.423  0.00  0.00     0.062 C 
ATOM     18  C   UNK d   0      11.544  -9.231  -5.451  0.00  0.00    -0.013 A 
ATOM     19  C   UNK d   0      12.187 -10.873  -2.268  0.00  0.00     0.067 A 
ATOM     20  N   UNK d   0      11.460 -11.986  -2.386  0.00  0.00    -0.248 NA
ATOM     21  C   UNK d   0      12.474 -10.697  -0.854  0.00  0.00    -0.011 A 
ATOM     22  C   UNK d   0      11.249 -12.551  -1.152  0.00  0.00     0.066 A 
ATOM     23  C   UNK d   0      10.536 -13.741  -1.132  0.00  0.00     0.062 C 
ATOM     24  C   UNK d   0      11.919 -11.681  -0.206  0.00  0.00    -0.020 A 
ATOM     25  C   UNK d   0      10.078 -14.488  -2.228  0.00  0.00     0.041 A 
ATOM     26  N   UNK d   0       9.540 -14.114  -3.395  0.00  0.00    -0.355 N 
ATOM     27  C   UNK d   0      10.185 -15.895  -2.177  0.00  0.00    -0.022 A 
ATOM     28  C   UNK d   0       9.304 -15.236  -4.093  0.00  0.00     0.042 A 
ATOM     29  H   UNK d   0       9.305 -13.069  -3.714  0.00  0.00     0.166 HD
ATOM     30  C   UNK d   0       8.758 -15.429  -5.372  0.00  0.00     0.062 C 
ATOM     31  C   UNK d   0       9.698 -16.376  -3.354  0.00  0.00    -0.013 A 
ATOM     32  C   UNK d   0       8.979 -14.681  -6.518  0.00  0.00     0.066 A 
BRANCH   8  33
ATOM     33  C   UNK d   0       8.947 -13.487  -9.995  0.00  0.00     0.151 C 
BRANCH  33  34
ATOM     34  C   UNK d   0       9.534 -12.188 -10.369  0.00  0.00     0.143 C 
ATOM     35  O   UNK d   0      10.563 -12.128 -11.056  0.00  0.00    -0.650 OA
BRANCH  34  36
ATOM     36  O   UNK d   0       8.929 -11.027  -9.946  0.00  0.00    -0.776 OA
ATOM     37  H   UNK d   0       9.194 -10.113 -10.338  0.00  0.00     0.167 HD
ENDBRANCH  34  36
ENDBRANCH  33  34
ENDBRANCH   8  33
BRANCH  31  38
ATOM     38  C   UNK d   0       9.622 -17.829  -3.759  0.00  0.00     0.151 C 
BRANCH  38  39
ATOM     39  C   UNK d   0       8.370 -18.452  -3.386  0.00  0.00     0.143 C 
ATOM     40  O   UNK d   0       8.193 -18.974  -2.271  0.00  0.00    -0.650 OA
BRANCH  39  41
ATOM     41  O   UNK d   0       7.316 -18.475  -4.298  0.00  0.00    -0.776 OA
ATOM     42  H   UNK d   0       6.878 -19.385  -4.475  0.00  0.00     0.167 HD
ENDBRANCH  39  41
ENDBRANCH  38  39
ENDBRANCH  31  38
BRANCH  27  43
ATOM     43  C   UNK d   0      10.719 -16.777  -1.076  0.00  0.00     0.052 C 
BRANCH  43  44
ATOM     44  C   UNK d   0      12.205 -16.712  -0.935  0.00  0.00     0.115 C 
BRANCH  44  45
ATOM     45  C   UNK d   0      12.766 -16.805  -2.308  0.00  0.00     0.139 C 
ATOM     46  O   UNK d   0      13.230 -15.762  -2.830  0.00  0.00    -0.650 OA
BRANCH  45  47
ATOM     47  O   UNK d   0      12.802 -17.984  -3.022  0.00  0.00    -0.776 OA
ATOM     48  H   UNK d   0      12.545 -18.041  -4.021  0.00  0.00     0.167 HD
ENDBRANCH  45  47
ENDBRANCH  44  45
ENDBRANCH  43  44
ENDBRANCH  27  43
BRANCH  24  49
ATOM     49  C   UNK d   0      11.993 -11.915   1.247  0.00  0.00     0.052 C 
BRANCH  49  50
ATOM     50  C   UNK d   0      10.613 -12.130   1.814  0.00  0.00     0.115 C 
BRANCH  50  51
ATOM     51  C   UNK d   0      10.519 -12.846   3.079  0.00  0.00     0.139 C 
ATOM     52  O   UNK d   0       9.449 -12.938   3.726  0.00  0.00    -0.650 OA
BRANCH  51  53
ATOM     53  O   UNK d   0      11.646 -13.455   3.609  0.00  0.00    -0.776 OA
ATOM     54  H   UNK d   0      11.647 -14.456   3.700  0.00  0.00     0.167 HD
ENDBRANCH  51  53
ENDBRANCH  50  51
ENDBRANCH  49  50
ENDBRANCH  24  49
BRANCH  21  55
ATOM     55  C   UNK d   0      13.277  -9.568  -0.299  0.00  0.00     0.151 C 
BRANCH  55  56
ATOM     56  C   UNK d   0      14.657  -9.973   0.013  0.00  0.00     0.143 C 
ATOM     57  O   UNK d   0      15.405 -10.518  -0.821  0.00  0.00    -0.650 OA
BRANCH  56  58
ATOM     58  O   UNK d   0      15.129  -9.729   1.302  0.00  0.00    -0.776 OA
ATOM     59  H   UNK d   0      16.115 -10.002   1.464  0.00  0.00     0.167 HD
ENDBRANCH  56  58
ENDBRANCH  55  56
ENDBRANCH  21  55
BRANCH  18  60
ATOM     60  C   UNK d   0      11.610  -7.772  -5.074  0.00  0.00     0.151 C 
BRANCH  60  61
ATOM     61  C   UNK d   0      10.414  -7.511  -4.259  0.00  0.00     0.143 C 
ATOM     62  O   UNK d   0       9.820  -8.310  -3.535  0.00  0.00    -0.650 OA
BRANCH  61  63
ATOM     63  O   UNK d   0       9.912  -6.189  -4.332  0.00  0.00    -0.776 OA
ATOM     64  H   UNK d   0       9.087  -5.976  -4.864  0.00  0.00     0.167 HD
ENDBRANCH  61  63
ENDBRANCH  60  61
ENDBRANCH  18  60
BRANCH  14  65
ATOM     65  C   UNK d   0      10.653  -8.801  -7.763  0.00  0.00     0.052 C 
BRANCH  65  66
ATOM     66  C   UNK d   0      11.750  -8.527  -8.730  0.00  0.00     0.115 C 
BRANCH  66  67
ATOM     67  C   UNK d   0      11.696  -9.094 -10.048  0.00  0.00     0.139 C 
ATOM     68  O   UNK d   0      12.683  -9.816 -10.447  0.00  0.00    -0.650 OA
BRANCH  67  69
ATOM     69  O   UNK d   0      10.678  -8.962 -10.992  0.00  0.00    -0.776 OA
ATOM     70  H   UNK d   0      10.675  -9.662 -11.748  0.00  0.00     0.167 HD
ENDBRANCH  67  69
ENDBRANCH  66  67
ENDBRANCH  65  66
ENDBRANCH  14  65
ENDBRANCH   6   7
ENDBRANCH   5   6
ENDBRANCH   2   5
TORSDOF 28
ENDMDL
MODEL 5
REMARK VINA RESULT:      -9.0      3.293      9.090
REMARK  28 active torsions:
REMARK  status: ('A' for Active; 'I' for Inactive)
REMARK    1  A    between atoms: C_2  and  O_3 
REMARK    2  A    between atoms: C_2  and  C_4 
REMARK    3  A    between atoms: C_4  and  C_5 
REMARK    4  A    between atoms: C_5  and  C_6 
REMARK    5  A    between atoms: C_7  and  C_8 
REMARK    6  A    between atoms: C_8  and  C_9 
REMARK    7  A    between atoms: C_9  and  O_11 
REMARK    8  A    between atoms: C_28  and  C_29 
REMARK    9  A    between atoms: C_29  and  C_30 
REMARK   10  A    between atoms: C_30  and  O_32 
REMARK   11  A    between atoms: C_33  and  C_34 
REMARK   12  A    between atoms: C_34  and  C_35 
REMARK   13  A    between atoms: C_35  and  C_36 
REMARK   14  A    between atoms: C_36  and  O_38 
REMARK   15  A    between atoms: C_39  and  C_40 
REMARK   16  A    between atoms: C_40  and  C_41 
REMARK   17  A    between atoms: C_41  and  C_42 
REMARK   18  A    between atoms: C_42  and  O_44 
REMARK   19  A    between atoms: C_45  and  C_46 
REMARK   20  A    between atoms: C_46  and  C_47 
REMARK   21  A    between atoms: C_47  and  O_49 
REMARK   22  A    between atoms: C_50  and  C_51 
REMARK   23  A    between atoms: C_51  and  C_52 
REMARK   24  A    between atoms: C_52  and  O_54 
REMARK   25  A    between atoms: C_55  and  C_56 
REMARK   26  A    between atoms: C_56  and  C_57 
REMARK   27  A    between atoms: C_57  and  C_58 
REMARK   28  A    between atoms: C_58  and  O_60 
ROOT
ATOM      1  O   UNK d   0       2.676 -20.486  -4.668  0.00  0.00    -0.650 OA
ATOM      2  C   UNK d   0       3.358 -19.445  -4.538  0.00  0.00     0.139 C 
ENDROOT
BRANCH   2   3
ATOM      3  O   UNK d   0       2.848 -18.247  -4.977  0.00  0.00    -0.776 OA
ATOM      4  H   UNK d   0       3.252 -17.766  -5.783  0.00  0.00     0.167 HD
ENDBRANCH   2   3
BRANCH   2   5
ATOM      5  C   UNK d   0       4.710 -19.509  -3.914  0.00  0.00     0.115 C 
BRANCH   5   6
ATOM      6  C   UNK d   0       5.680 -20.179  -4.849  0.00  0.00     0.052 C 
BRANCH   6   7
ATOM      7  C   UNK d   0       6.055 -19.305  -6.022  0.00  0.00    -0.020 A 
ATOM      8  C   UNK d   0       5.646 -19.413  -7.260  0.00  0.00    -0.011 A 
ATOM      9  C   UNK d   0       6.279 -18.356  -8.032  0.00  0.00     0.067 A 
ATOM     10  C   UNK d   0       6.250 -17.919  -9.365  0.00  0.00     0.062 C 
ATOM     11  N   UNK d   0       7.062 -17.655  -7.184  0.00  0.00    -0.248 NA
ATOM     12  C   UNK d   0       6.718 -16.700  -9.867  0.00  0.00     0.041 A 
ATOM     13  N   UNK d   0       7.844 -16.007  -9.607  0.00  0.00    -0.355 N 
ATOM     14  C   UNK d   0       5.911 -15.979 -10.766  0.00  0.00    -0.022 A 
ATOM     15  C   UNK d   0       7.767 -14.862 -10.312  0.00  0.00     0.042 A 
ATOM     16  H   UNK d   0       8.684 -16.330  -8.954  0.00  0.00     0.166 HD
ATOM     17  C   UNK d   0       8.671 -13.785 -10.405  0.00  0.00     0.062 C 
ATOM     18  C   UNK d   0       6.570 -14.808 -11.050  0.00  0.00    -0.013 A 
ATOM     19  C   UNK d   0       9.356 -13.145  -9.403  0.00  0.00     0.067 A 
ATOM     20  N   UNK d   0       9.337 -13.717  -8.197  0.00  0.00    -0.248 NA
ATOM     21  C   UNK d   0      10.138 -11.925  -9.287  0.00  0.00    -0.011 A 
ATOM     22  C   UNK d   0      10.048 -12.959  -7.299  0.00  0.00     0.066 A 
ATOM     23  C   UNK d   0      10.143 -13.458  -6.008  0.00  0.00     0.062 C 
ATOM     24  C   UNK d   0      10.536 -11.820  -8.052  0.00  0.00    -0.020 A 
ATOM     25  C   UNK d   0       9.676 -14.691  -5.527  0.00  0.00     0.041 A 
ATOM     26  N   UNK d   0       8.551 -15.373  -5.774  0.00  0.00    -0.355 N 
ATOM     27  C   UNK d   0      10.489 -15.416  -4.629  0.00  0.00    -0.022 A 
ATOM     28  C   UNK d   0       8.621 -16.511  -5.066  0.00  0.00     0.042 A 
ATOM     29  H   UNK d   0       7.703 -15.042  -6.422  0.00  0.00     0.166 HD
ATOM     30  C   UNK d   0       7.725 -17.586  -4.957  0.00  0.00     0.062 C 
ATOM     31  C   UNK d   0       9.829 -16.569  -4.332  0.00  0.00    -0.013 A 
ATOM     32  C   UNK d   0       6.970 -18.175  -5.959  0.00  0.00     0.066 A 
BRANCH   8  33
ATOM     33  C   UNK d   0       4.716 -20.421  -7.801  0.00  0.00     0.151 C 
BRANCH  33  34
ATOM     34  C   UNK d   0       3.535 -19.820  -8.446  0.00  0.00     0.143 C 
ATOM     35  O   UNK d   0       2.806 -19.029  -7.829  0.00  0.00    -0.650 OA
BRANCH  34  36
ATOM     36  O   UNK d   0       3.239 -20.143  -9.750  0.00  0.00    -0.776 OA
ATOM     37  H   UNK d   0       2.299 -19.991 -10.139  0.00  0.00     0.167 HD
ENDBRANCH  34  36
ENDBRANCH  33  34
ENDBRANCH   8  33
BRANCH  31  38
ATOM     38  C   UNK d   0      10.320 -17.668  -3.419  0.00  0.00     0.151 C 
BRANCH  38  39
ATOM     39  C   UNK d   0      11.370 -18.467  -4.014  0.00  0.00     0.143 C 
ATOM     40  O   UNK d   0      11.145 -19.301  -4.908  0.00  0.00    -0.650 OA
BRANCH  39  41
ATOM     41  O   UNK d   0      12.685 -18.305  -3.581  0.00  0.00    -0.776 OA
ATOM     42  H   UNK d   0      13.301 -19.120  -3.660  0.00  0.00     0.167 HD
ENDBRANCH  39  41
ENDBRANCH  38  39
ENDBRANCH  31  38
BRANCH  27  43
ATOM     43  C   UNK d   0      11.837 -15.059  -4.054  0.00  0.00     0.052 C 
BRANCH  43  44
ATOM     44  C   UNK d   0      11.757 -14.100  -2.912  0.00  0.00     0.115 C 
BRANCH  44  45
ATOM     45  C   UNK d   0      12.090 -14.871  -1.686  0.00  0.00     0.139 C 
ATOM     46  O   UNK d   0      11.390 -14.683  -0.660  0.00  0.00    -0.650 OA
BRANCH  45  47
ATOM     47  O   UNK d   0      13.125 -15.780  -1.632  0.00  0.00    -0.776 OA
ATOM     48  H   UNK d   0      14.097 -15.537  -1.882  0.00  0.00     0.167 HD
ENDBRANCH  45  47
ENDBRANCH  44  45
ENDBRANCH  43  44
ENDBRANCH  27  43
BRANCH  24  49
ATOM     49  C   UNK d   0      11.388 -10.751  -7.502  0.00  0.00     0.052 C 
BRANCH  49  50
ATOM     50  C   UNK d   0      10.649  -9.437  -7.506  0.00  0.00     0.115 C 
BRANCH  50  51
ATOM     51  C   UNK d   0      11.425  -8.239  -7.793  0.00  0.00     0.139 C 
ATOM     52  O   UNK d   0      12.049  -7.608  -6.907  0.00  0.00    -0.650 OA
BRANCH  51  53
ATOM     53  O   UNK d   0      11.487  -7.756  -9.092  0.00  0.00    -0.776 OA
ATOM     54  H   UNK d   0      11.381  -6.767  -9.237  0.00  0.00     0.167 HD
ENDBRANCH  51  53
ENDBRANCH  50  51
ENDBRANCH  49  50
ENDBRANCH  24  49
BRANCH  21  55
ATOM     55  C   UNK d   0      10.408 -10.995 -10.422  0.00  0.00     0.151 C 
BRANCH  55  56
ATOM     56  C   UNK d   0      11.841 -10.922 -10.746  0.00  0.00     0.143 C 
ATOM     57  O   UNK d   0      12.465  -9.844 -10.805  0.00  0.00    -0.650 OA
BRANCH  56  58
ATOM     58  O   UNK d   0      12.512 -12.118 -10.995  0.00  0.00    -0.776 OA
ATOM     59  H   UNK d   0      12.232 -12.602 -11.867  0.00  0.00     0.167 HD
ENDBRANCH  56  58
ENDBRANCH  55  56
ENDBRANCH  21  55
BRANCH  18  60
ATOM     60  C   UNK d   0       6.056 -13.729 -11.970  0.00  0.00     0.151 C 
BRANCH  60  61
ATOM     61  C   UNK d   0       6.446 -14.137 -13.329  0.00  0.00     0.143 C 
ATOM     62  O   UNK d   0       7.573 -14.447 -13.716  0.00  0.00    -0.650 OA
BRANCH  61  63
ATOM     63  O   UNK d   0       5.392 -14.169 -14.274  0.00  0.00    -0.776 OA
ATOM     64  H   UNK d   0       4.580 -14.743 -14.126  0.00  0.00     0.167 HD
ENDBRANCH  61  63
ENDBRANCH  60  61
ENDBRANCH  18  60
BRANCH  14  65
ATOM     65  C   UNK d   0       4.624 -16.352 -11.446  0.00  0.00     0.052 C 
BRANCH  65  66
ATOM     66  C   UNK d   0       4.767 -17.517 -12.361  0.00  0.00     0.115 C 
BRANCH  66  67
ATOM     67  C   UNK d   0       5.186 -17.308 -13.718  0.00  0.00     0.139 C 
ATOM     68  O   UNK d   0       4.286 -17.111 -14.615  0.00  0.00    -0.650 OA
BRANCH  67  69
ATOM     69  O   UNK d   0       6.489 -17.289 -14.216  0.00  0.00    -0.776 OA
ATOM     70  H   UNK d   0       6.715 -18.020 -14.905  0.00  0.00     0.167 HD
ENDBRANCH  67  69
ENDBRANCH  66  67
ENDBRANCH  65  66
ENDBRANCH  14  65
ENDBRANCH   6   7
ENDBRANCH   5   6
ENDBRANCH   2   5
TORSDOF 28
ENDMDL
MODEL 6
REMARK VINA RESULT:      -8.7      1.949      7.851
REMARK  28 active torsions:
REMARK  status: ('A' for Active; 'I' for Inactive)
REMARK    1  A    between atoms: C_2  and  O_3 
REMARK    2  A    between atoms: C_2  and  C_4 
REMARK    3  A    between atoms: C_4  and  C_5 
REMARK    4  A    between atoms: C_5  and  C_6 
REMARK    5  A    between atoms: C_7  and  C_8 
REMARK    6  A    between atoms: C_8  and  C_9 
REMARK    7  A    between atoms: C_9  and  O_11 
REMARK    8  A    between atoms: C_28  and  C_29 
REMARK    9  A    between atoms: C_29  and  C_30 
REMARK   10  A    between atoms: C_30  and  O_32 
REMARK   11  A    between atoms: C_33  and  C_34 
REMARK   12  A    between atoms: C_34  and  C_35 
REMARK   13  A    between atoms: C_35  and  C_36 
REMARK   14  A    between atoms: C_36  and  O_38 
REMARK   15  A    between atoms: C_39  and  C_40 
REMARK   16  A    between atoms: C_40  and  C_41 
REMARK   17  A    between atoms: C_41  and  C_42 
REMARK   18  A    between atoms: C_42  and  O_44 
REMARK   19  A    between atoms: C_45  and  C_46 
REMARK   20  A    between atoms: C_46  and  C_47 
REMARK   21  A    between atoms: C_47  and  O_49 
REMARK   22  A    between atoms: C_50  and  C_51 
REMARK   23  A    between atoms: C_51  and  C_52 
REMARK   24  A    between atoms: C_52  and  O_54 
REMARK   25  A    between atoms: C_55  and  C_56 
REMARK   26  A    between atoms: C_56  and  C_57 
REMARK   27  A    between atoms: C_57  and  C_58 
REMARK   28  A    between atoms: C_58  and  O_60 
ROOT
ATOM      1  O   UNK d   0      11.424  -7.952  -9.572  0.00  0.00    -0.650 OA
ATOM      2  C   UNK d   0      11.438  -8.601 -10.642  0.00  0.00     0.139 C 
ENDROOT
BRANCH   2   3
ATOM      3  O   UNK d   0      11.095  -7.973 -11.815  0.00  0.00    -0.776 OA
ATOM      4  H   UNK d   0      10.146  -8.038 -12.191  0.00  0.00     0.167 HD
ENDBRANCH   2   3
BRANCH   2   5
ATOM      5  C   UNK d   0      11.822 -10.041 -10.639  0.00  0.00     0.115 C 
BRANCH   5   6
ATOM      6  C   UNK d   0      10.707 -10.875 -11.209  0.00  0.00     0.052 C 
BRANCH   6   7
ATOM      7  C   UNK d   0      10.159 -11.871 -10.214  0.00  0.00    -0.020 A 
ATOM      8  C   UNK d   0       9.403 -12.910 -10.460  0.00  0.00    -0.011 A 
ATOM      9  C   UNK d   0       9.121 -13.564  -9.193  0.00  0.00     0.067 A 
ATOM     10  C   UNK d   0       8.412 -14.702  -8.776  0.00  0.00     0.062 C 
ATOM     11  N   UNK d   0       9.741 -12.852  -8.228  0.00  0.00    -0.248 NA
ATOM     12  C   UNK d   0       8.484 -15.336  -7.531  0.00  0.00     0.041 A 
ATOM     13  N   UNK d   0       8.522 -14.834  -6.282  0.00  0.00    -0.355 N 
ATOM     14  C   UNK d   0       8.592 -16.737  -7.485  0.00  0.00    -0.022 A 
ATOM     15  C   UNK d   0       8.658 -15.880  -5.446  0.00  0.00     0.042 A 
ATOM     16  H   UNK d   0       8.433 -13.762  -5.995  0.00  0.00     0.166 HD
ATOM     17  C   UNK d   0       8.748 -15.921  -4.040  0.00  0.00     0.062 C 
ATOM     18  C   UNK d   0       8.706 -17.091  -6.164  0.00  0.00    -0.013 A 
ATOM     19  C   UNK d   0       9.490 -15.130  -3.200  0.00  0.00     0.067 A 
ATOM     20  N   UNK d   0      10.059 -14.047  -3.735  0.00  0.00    -0.248 NA
ATOM     21  C   UNK d   0       9.861 -15.159  -1.795  0.00  0.00    -0.011 A 
ATOM     22  C   UNK d   0      10.777 -13.366  -2.782  0.00  0.00     0.066 A 
ATOM     23  C   UNK d   0      11.392 -12.193  -3.195  0.00  0.00     0.062 C 
ATOM     24  C   UNK d   0      10.618 -14.126  -1.558  0.00  0.00    -0.020 A 
ATOM     25  C   UNK d   0      11.297 -11.567  -4.448  0.00  0.00     0.041 A 
ATOM     26  N   UNK d   0      11.275 -12.065  -5.690  0.00  0.00    -0.355 N 
ATOM     27  C   UNK d   0      11.185 -10.160  -4.492  0.00  0.00    -0.022 A 
ATOM     28  C   UNK d   0      11.147 -11.022  -6.526  0.00  0.00     0.042 A 
ATOM     29  H   UNK d   0      11.374 -13.141  -5.976  0.00  0.00     0.166 HD
ATOM     30  C   UNK d   0      11.066 -10.967  -7.926  0.00  0.00     0.062 C 
ATOM     31  C   UNK d   0      11.089  -9.807  -5.803  0.00  0.00    -0.013 A 
ATOM     32  C   UNK d   0      10.383 -11.821  -8.777  0.00  0.00     0.066 A 
BRANCH   8  33
ATOM     33  C   UNK d   0       8.909 -13.354 -11.776  0.00  0.00     0.151 C 
BRANCH  33  34
ATOM     34  C   UNK d   0       7.469 -13.667 -11.769  0.00  0.00     0.143 C 
ATOM     35  O   UNK d   0       6.624 -12.773 -11.616  0.00  0.00    -0.650 OA
BRANCH  34  36
ATOM     36  O   UNK d   0       7.060 -14.970 -11.934  0.00  0.00    -0.776 OA
ATOM     37  H   UNK d   0       6.820 -15.561 -11.126  0.00  0.00     0.167 HD
ENDBRANCH  34  36
ENDBRANCH  33  34
ENDBRANCH   8  33
BRANCH  31  38
ATOM     38  C   UNK d   0      10.937  -8.403  -6.339  0.00  0.00     0.151 C 
BRANCH  38  39
ATOM     39  C   UNK d   0      12.203  -7.716  -6.481  0.00  0.00     0.143 C 
ATOM     40  O   UNK d   0      12.347  -6.518  -6.181  0.00  0.00    -0.650 OA
BRANCH  39  41
ATOM     41  O   UNK d   0      13.309  -8.410  -6.971  0.00  0.00    -0.776 OA
ATOM     42  H   UNK d   0      14.009  -8.707  -6.283  0.00  0.00     0.167 HD
ENDBRANCH  39  41
ENDBRANCH  38  39
ENDBRANCH  31  38
BRANCH  27  43
ATOM     43  C   UNK d   0      11.168  -9.164  -3.359  0.00  0.00     0.052 C 
BRANCH  43  44
ATOM     44  C   UNK d   0      12.506  -8.558  -3.086  0.00  0.00     0.115 C 
BRANCH  44  45
ATOM     45  C   UNK d   0      12.795  -8.797  -1.648  0.00  0.00     0.139 C 
ATOM     46  O   UNK d   0      12.577  -9.944  -1.184  0.00  0.00    -0.650 OA
BRANCH  45  47
ATOM     47  O   UNK d   0      13.293  -7.821  -0.813  0.00  0.00    -0.776 OA
ATOM     48  H   UNK d   0      14.094  -7.221  -1.068  0.00  0.00     0.167 HD
ENDBRANCH  45  47
ENDBRANCH  44  45
ENDBRANCH  43  44
ENDBRANCH  27  43
BRANCH  24  49
ATOM     49  C   UNK d   0      11.186 -13.747  -0.253  0.00  0.00     0.052 C 
BRANCH  49  50
ATOM     50  C   UNK d   0      10.290 -12.754   0.441  0.00  0.00     0.115 C 
BRANCH  50  51
ATOM     51  C   UNK d   0      10.569 -12.475   1.843  0.00  0.00     0.139 C 
ATOM     52  O   UNK d   0      10.352 -11.356   2.366  0.00  0.00    -0.650 OA
BRANCH  51  53
ATOM     53  O   UNK d   0      11.097 -13.470   2.650  0.00  0.00    -0.776 OA
ATOM     54  H   UNK d   0      11.700 -13.199   3.407  0.00  0.00     0.167 HD
ENDBRANCH  51  53
ENDBRANCH  50  51
ENDBRANCH  49  50
ENDBRANCH  24  49
BRANCH  21  55
ATOM     55  C   UNK d   0       9.418 -16.213  -0.836  0.00  0.00     0.151 C 
BRANCH  55  56
ATOM     56  C   UNK d   0       9.642 -17.568  -1.362  0.00  0.00     0.143 C 
ATOM     57  O   UNK d   0       8.757 -18.445  -1.367  0.00  0.00    -0.650 OA
BRANCH  56  58
ATOM     58  O   UNK d   0      10.905 -17.864  -1.874  0.00  0.00    -0.776 OA
ATOM     59  H   UNK d   0      11.544 -17.054  -1.954  0.00  0.00     0.167 HD
ENDBRANCH  56  58
ENDBRANCH  55  56
ENDBRANCH  21  55
BRANCH  18  60
ATOM     60  C   UNK d   0       8.854 -18.504  -5.657  0.00  0.00     0.151 C 
BRANCH  60  61
ATOM     61  C   UNK d   0      10.301 -18.764  -5.601  0.00  0.00     0.143 C 
ATOM     62  O   UNK d   0      11.073 -18.469  -4.688  0.00  0.00    -0.650 OA
BRANCH  61  63
ATOM     63  O   UNK d   0      10.838 -19.425  -6.731  0.00  0.00    -0.776 OA
ATOM     64  H   UNK d   0      10.323 -19.482  -7.592  0.00  0.00     0.167 HD
ENDBRANCH  61  63
ENDBRANCH  60  61
ENDBRANCH  18  60
BRANCH  14  65
ATOM     65  C   UNK d   0       8.496 -17.764  -8.578  0.00  0.00     0.052 C 
BRANCH  65  66
ATOM     66  C   UNK d   0       7.187 -18.471  -8.599  0.00  0.00     0.115 C 
BRANCH  66  67
ATOM     67  C   UNK d   0       6.274 -18.246  -9.684  0.00  0.00     0.139 C 
ATOM     68  O   UNK d   0       5.420 -19.164  -9.968  0.00  0.00    -0.650 OA
BRANCH  67  69
ATOM     69  O   UNK d   0       6.186 -17.122 -10.506  0.00  0.00    -0.776 OA
ATOM     70  H   UNK d   0       6.648 -17.200 -11.423  0.00  0.00     0.167 HD
ENDBRANCH  67  69
ENDBRANCH  66  67
ENDBRANCH  65  66
ENDBRANCH  14  65
ENDBRANCH   6   7
ENDBRANCH   5   6
ENDBRANCH   2   5
TORSDOF 28
ENDMDL
MODEL 7
REMARK VINA RESULT:      -8.7      1.907      8.190
REMARK  28 active torsions:
REMARK  status: ('A' for Active; 'I' for Inactive)
REMARK    1  A    between atoms: C_2  and  O_3 
REMARK    2  A    between atoms: C_2  and  C_4 
REMARK    3  A    between atoms: C_4  and  C_5 
REMARK    4  A    between atoms: C_5  and  C_6 
REMARK    5  A    between atoms: C_7  and  C_8 
REMARK    6  A    between atoms: C_8  and  C_9 
REMARK    7  A    between atoms: C_9  and  O_11 
REMARK    8  A    between atoms: C_28  and  C_29 
REMARK    9  A    between atoms: C_29  and  C_30 
REMARK   10  A    between atoms: C_30  and  O_32 
REMARK   11  A    between atoms: C_33  and  C_34 
REMARK   12  A    between atoms: C_34  and  C_35 
REMARK   13  A    between atoms: C_35  and  C_36 
REMARK   14  A    between atoms: C_36  and  O_38 
REMARK   15  A    between atoms: C_39  and  C_40 
REMARK   16  A    between atoms: C_40  and  C_41 
REMARK   17  A    between atoms: C_41  and  C_42 
REMARK   18  A    between atoms: C_42  and  O_44 
REMARK   19  A    between atoms: C_45  and  C_46 
REMARK   20  A    between atoms: C_46  and  C_47 
REMARK   21  A    between atoms: C_47  and  O_49 
REMARK   22  A    between atoms: C_50  and  C_51 
REMARK   23  A    between atoms: C_51  and  C_52 
REMARK   24  A    between atoms: C_52  and  O_54 
REMARK   25  A    between atoms: C_55  and  C_56 
REMARK   26  A    between atoms: C_56  and  C_57 
REMARK   27  A    between atoms: C_57  and  C_58 
REMARK   28  A    between atoms: C_58  and  O_60 
ROOT
ATOM      1  O   UNK d   0       6.593 -19.491  -5.200  0.00  0.00    -0.650 OA
ATOM      2  C   UNK d   0       7.369 -18.971  -4.368  0.00  0.00     0.139 C 
ENDROOT
BRANCH   2   3
ATOM      3  O   UNK d   0       7.326 -19.384  -3.058  0.00  0.00    -0.776 OA
ATOM      4  H   UNK d   0       6.450 -19.377  -2.531  0.00  0.00     0.167 HD
ENDBRANCH   2   3
BRANCH   2   5
ATOM      5  C   UNK d   0       8.328 -17.914  -4.797  0.00  0.00     0.115 C 
BRANCH   5   6
ATOM      6  C   UNK d   0       9.340 -17.662  -3.712  0.00  0.00     0.052 C 
BRANCH   6   7
ATOM      7  C   UNK d   0       9.716 -16.204  -3.596  0.00  0.00    -0.020 A 
ATOM      8  C   UNK d   0      10.037 -15.546  -2.511  0.00  0.00    -0.011 A 
ATOM      9  C   UNK d   0      10.311 -14.170  -2.890  0.00  0.00     0.067 A 
ATOM     10  C   UNK d   0      10.714 -12.999  -2.229  0.00  0.00     0.062 C 
ATOM     11  N   UNK d   0      10.128 -14.078  -4.224  0.00  0.00    -0.248 NA
ATOM     12  C   UNK d   0      11.200 -11.823  -2.810  0.00  0.00     0.041 A 
ATOM     13  N   UNK d   0      10.795 -11.137  -3.896  0.00  0.00    -0.355 N 
ATOM     14  C   UNK d   0      12.342 -11.214  -2.259  0.00  0.00    -0.022 A 
ATOM     15  C   UNK d   0      11.655 -10.113  -4.052  0.00  0.00     0.042 A 
ATOM     16  H   UNK d   0       9.907 -11.361  -4.528  0.00  0.00     0.166 HD
ATOM     17  C   UNK d   0      11.693  -9.093  -5.024  0.00  0.00     0.062 C 
ATOM     18  C   UNK d   0      12.639 -10.128  -3.045  0.00  0.00    -0.013 A 
ATOM     19  C   UNK d   0      11.532  -9.189  -6.382  0.00  0.00     0.067 A 
ATOM     20  N   UNK d   0      11.086 -10.355  -6.857  0.00  0.00    -0.248 NA
ATOM     21  C   UNK d   0      11.742  -8.314  -7.524  0.00  0.00    -0.011 A 
ATOM     22  C   UNK d   0      10.991 -10.306  -8.227  0.00  0.00     0.066 A 
ATOM     23  C   UNK d   0      10.502 -11.444  -8.851  0.00  0.00     0.062 C 
ATOM     24  C   UNK d   0      11.427  -8.975  -8.600  0.00  0.00    -0.020 A 
ATOM     25  C   UNK d   0      10.006 -12.611  -8.249  0.00  0.00     0.041 A 
ATOM     26  N   UNK d   0      10.418 -13.301  -7.178  0.00  0.00    -0.355 N 
ATOM     27  C   UNK d   0       8.857 -13.219  -8.800  0.00  0.00    -0.022 A 
ATOM     28  C   UNK d   0       9.567 -14.328  -7.025  0.00  0.00     0.042 A 
ATOM     29  H   UNK d   0      11.316 -13.080  -6.551  0.00  0.00     0.166 HD
ATOM     30  C   UNK d   0       9.523 -15.355  -6.070  0.00  0.00     0.062 C 
ATOM     31  C   UNK d   0       8.572 -14.306  -8.032  0.00  0.00    -0.013 A 
ATOM     32  C   UNK d   0       9.770 -15.268  -4.709  0.00  0.00     0.066 A 
BRANCH   8  33
ATOM     33  C   UNK d   0      10.107 -16.083  -1.140  0.00  0.00     0.151 C 
BRANCH  33  34
ATOM     34  C   UNK d   0       9.021 -15.586  -0.276  0.00  0.00     0.143 C 
ATOM     35  O   UNK d   0       9.014 -14.415   0.128  0.00  0.00    -0.650 OA
BRANCH  34  36
ATOM     36  O   UNK d   0       8.003 -16.438   0.086  0.00  0.00    -0.776 OA
ATOM     37  H   UNK d   0       8.033 -16.961   0.971  0.00  0.00     0.167 HD
ENDBRANCH  34  36
ENDBRANCH  33  34
ENDBRANCH   8  33
BRANCH  31  38
ATOM     38  C   UNK d   0       7.418 -15.260  -8.231  0.00  0.00     0.151 C 
BRANCH  38  39
ATOM     39  C   UNK d   0       7.763 -16.393  -9.063  0.00  0.00     0.143 C 
ATOM     40  O   UNK d   0       8.815 -17.037  -8.908  0.00  0.00    -0.650 OA
BRANCH  39  41
ATOM     41  O   UNK d   0       6.893 -16.787 -10.080  0.00  0.00    -0.776 OA
ATOM     42  H   UNK d   0       5.907 -16.905  -9.824  0.00  0.00     0.167 HD
ENDBRANCH  39  41
ENDBRANCH  38  39
ENDBRANCH  31  38
BRANCH  27  43
ATOM     43  C   UNK d   0       8.042 -12.815 -10.003  0.00  0.00     0.052 C 
BRANCH  43  44
ATOM     44  C   UNK d   0       8.723 -13.103 -11.302  0.00  0.00     0.115 C 
BRANCH  44  45
ATOM     45  C   UNK d   0       7.804 -13.975 -12.078  0.00  0.00     0.139 C 
ATOM     46  O   UNK d   0       6.674 -14.226 -11.591  0.00  0.00    -0.650 OA
BRANCH  45  47
ATOM     47  O   UNK d   0       8.139 -14.509 -13.304  0.00  0.00    -0.776 OA
ATOM     48  H   UNK d   0       7.511 -15.139 -13.831  0.00  0.00     0.167 HD
ENDBRANCH  45  47
ENDBRANCH  44  45
ENDBRANCH  43  44
ENDBRANCH  27  43
BRANCH  24  49
ATOM     49  C   UNK d   0      11.455  -8.455  -9.978  0.00  0.00     0.052 C 
BRANCH  49  50
ATOM     50  C   UNK d   0      11.449  -9.592 -10.968  0.00  0.00     0.115 C 
BRANCH  50  51
ATOM     51  C   UNK d   0      12.742 -10.091 -11.415  0.00  0.00     0.139 C 
ATOM     52  O   UNK d   0      13.178 -11.222 -11.094  0.00  0.00    -0.650 OA
BRANCH  51  53
ATOM     53  O   UNK d   0      13.541  -9.299 -12.225  0.00  0.00    -0.776 OA
ATOM     54  H   UNK d   0      14.059  -9.744 -12.963  0.00  0.00     0.167 HD
ENDBRANCH  51  53
ENDBRANCH  50  51
ENDBRANCH  49  50
ENDBRANCH  24  49
BRANCH  21  55
ATOM     55  C   UNK d   0      12.231  -6.908  -7.419  0.00  0.00     0.151 C 
BRANCH  55  56
ATOM     56  C   UNK d   0      11.183  -5.994  -6.937  0.00  0.00     0.143 C 
ATOM     57  O   UNK d   0      10.845  -5.927  -5.739  0.00  0.00    -0.650 OA
BRANCH  56  58
ATOM     58  O   UNK d   0      10.553  -5.177  -7.874  0.00  0.00    -0.776 OA
ATOM     59  H   UNK d   0       9.560  -5.406  -8.055  0.00  0.00     0.167 HD
ENDBRANCH  56  58
ENDBRANCH  55  56
ENDBRANCH  21  55
BRANCH  18  60
ATOM     60  C   UNK d   0      13.798  -9.189  -2.820  0.00  0.00     0.151 C 
BRANCH  60  61
ATOM     61  C   UNK d   0      13.206  -7.859  -2.612  0.00  0.00     0.143 C 
ATOM     62  O   UNK d   0      13.532  -6.807  -3.162  0.00  0.00    -0.650 OA
BRANCH  61  63
ATOM     63  O   UNK d   0      12.148  -7.811  -1.673  0.00  0.00    -0.776 OA
ATOM     64  H   UNK d   0      12.330  -7.828  -0.685  0.00  0.00     0.167 HD
ENDBRANCH  61  63
ENDBRANCH  60  61
ENDBRANCH  18  60
BRANCH  14  65
ATOM     65  C   UNK d   0      13.107 -11.519  -1.003  0.00  0.00     0.052 C 
BRANCH  65  66
ATOM     66  C   UNK d   0      12.633 -10.737   0.171  0.00  0.00     0.115 C 
BRANCH  66  67
ATOM     67  C   UNK d   0      11.905 -11.396   1.218  0.00  0.00     0.139 C 
ATOM     68  O   UNK d   0      11.976 -10.917   2.410  0.00  0.00    -0.650 OA
BRANCH  67  69
ATOM     69  O   UNK d   0      11.100 -12.529   1.115  0.00  0.00    -0.776 OA
ATOM     70  H   UNK d   0      11.003 -12.925   0.169  0.00  0.00     0.167 HD
ENDBRANCH  67  69
ENDBRANCH  66  67
ENDBRANCH  65  66
ENDBRANCH  14  65
ENDBRANCH   6   7
ENDBRANCH   5   6
ENDBRANCH   2   5
TORSDOF 28
ENDMDL
MODEL 8
REMARK VINA RESULT:      -8.7      2.363      8.145
REMARK  28 active torsions:
REMARK  status: ('A' for Active; 'I' for Inactive)
REMARK    1  A    between atoms: C_2  and  O_3 
REMARK    2  A    between atoms: C_2  and  C_4 
REMARK    3  A    between atoms: C_4  and  C_5 
REMARK    4  A    between atoms: C_5  and  C_6 
REMARK    5  A    between atoms: C_7  and  C_8 
REMARK    6  A    between atoms: C_8  and  C_9 
REMARK    7  A    between atoms: C_9  and  O_11 
REMARK    8  A    between atoms: C_28  and  C_29 
REMARK    9  A    between atoms: C_29  and  C_30 
REMARK   10  A    between atoms: C_30  and  O_32 
REMARK   11  A    between atoms: C_33  and  C_34 
REMARK   12  A    between atoms: C_34  and  C_35 
REMARK   13  A    between atoms: C_35  and  C_36 
REMARK   14  A    between atoms: C_36  and  O_38 
REMARK   15  A    between atoms: C_39  and  C_40 
REMARK   16  A    between atoms: C_40  and  C_41 
REMARK   17  A    between atoms: C_41  and  C_42 
REMARK   18  A    between atoms: C_42  and  O_44 
REMARK   19  A    between atoms: C_45  and  C_46 
REMARK   20  A    between atoms: C_46  and  C_47 
REMARK   21  A    between atoms: C_47  and  O_49 
REMARK   22  A    between atoms: C_50  and  C_51 
REMARK   23  A    between atoms: C_51  and  C_52 
REMARK   24  A    between atoms: C_52  and  O_54 
REMARK   25  A    between atoms: C_55  and  C_56 
REMARK   26  A    between atoms: C_56  and  C_57 
REMARK   27  A    between atoms: C_57  and  C_58 
REMARK   28  A    between atoms: C_58  and  O_60 
ROOT
ATOM      1  O   UNK d   0       6.233 -19.375  -4.797  0.00  0.00    -0.650 OA
ATOM      2  C   UNK d   0       7.133 -18.831  -4.119  0.00  0.00     0.139 C 
ENDROOT
BRANCH   2   3
ATOM      3  O   UNK d   0       7.493 -19.382  -2.913  0.00  0.00    -0.776 OA
ATOM      4  H   UNK d   0       8.291 -20.016  -2.840  0.00  0.00     0.167 HD
ENDBRANCH   2   3
BRANCH   2   5
ATOM      5  C   UNK d   0       7.804 -17.597  -4.618  0.00  0.00     0.115 C 
BRANCH   5   6
ATOM      6  C   UNK d   0       9.093 -17.373  -3.876  0.00  0.00     0.052 C 
BRANCH   6   7
ATOM      7  C   UNK d   0       9.480 -15.915  -3.809  0.00  0.00    -0.020 A 
ATOM      8  C   UNK d   0       9.775 -15.216  -2.743  0.00  0.00    -0.011 A 
ATOM      9  C   UNK d   0      10.073 -13.859  -3.169  0.00  0.00     0.067 A 
ATOM     10  C   UNK d   0      10.467 -12.665  -2.545  0.00  0.00     0.062 C 
ATOM     11  N   UNK d   0       9.928 -13.820  -4.510  0.00  0.00    -0.248 NA
ATOM     12  C   UNK d   0      10.980 -11.517  -3.159  0.00  0.00     0.041 A 
ATOM     13  N   UNK d   0      10.612 -10.873  -4.283  0.00  0.00    -0.355 N 
ATOM     14  C   UNK d   0      12.112 -10.895  -2.601  0.00  0.00    -0.022 A 
ATOM     15  C   UNK d   0      11.485  -9.863  -4.457  0.00  0.00     0.042 A 
ATOM     16  H   UNK d   0       9.740 -11.116  -4.930  0.00  0.00     0.166 HD
ATOM     17  C   UNK d   0      11.560  -8.884  -5.467  0.00  0.00     0.062 C 
ATOM     18  C   UNK d   0      12.440  -9.845  -3.422  0.00  0.00    -0.013 A 
ATOM     19  C   UNK d   0      11.436  -9.034  -6.825  0.00  0.00     0.067 A 
ATOM     20  N   UNK d   0      10.993 -10.215  -7.264  0.00  0.00    -0.248 NA
ATOM     21  C   UNK d   0      11.686  -8.208  -7.994  0.00  0.00    -0.011 A 
ATOM     22  C   UNK d   0      10.937 -10.221  -8.637  0.00  0.00     0.066 A 
ATOM     23  C   UNK d   0      10.455 -11.380  -9.228  0.00  0.00     0.062 C 
ATOM     24  C   UNK d   0      11.396  -8.910  -9.051  0.00  0.00    -0.020 A 
ATOM     25  C   UNK d   0       9.932 -12.517  -8.593  0.00  0.00     0.041 A 
ATOM     26  N   UNK d   0      10.307 -13.166  -7.484  0.00  0.00    -0.355 N 
ATOM     27  C   UNK d   0       8.794 -13.138  -9.151  0.00  0.00    -0.022 A 
ATOM     28  C   UNK d   0       9.443 -14.179  -7.314  0.00  0.00     0.042 A 
ATOM     29  H   UNK d   0      11.190 -12.927  -6.841  0.00  0.00     0.166 HD
ATOM     30  C   UNK d   0       9.363 -15.166  -6.319  0.00  0.00     0.062 C 
ATOM     31  C   UNK d   0       8.477 -14.191  -8.348  0.00  0.00    -0.013 A 
ATOM     32  C   UNK d   0       9.573 -15.025  -4.956  0.00  0.00     0.066 A 
BRANCH   8  33
ATOM     33  C   UNK d   0       9.803 -15.697  -1.349  0.00  0.00     0.151 C 
BRANCH  33  34
ATOM     34  C   UNK d   0      10.297 -17.081  -1.232  0.00  0.00     0.143 C 
ATOM     35  O   UNK d   0       9.518 -18.018  -1.007  0.00  0.00    -0.650 OA
BRANCH  34  36
ATOM     36  O   UNK d   0      11.642 -17.332  -1.374  0.00  0.00    -0.776 OA
ATOM     37  H   UNK d   0      12.349 -16.695  -0.981  0.00  0.00     0.167 HD
ENDBRANCH  34  36
ENDBRANCH  33  34
ENDBRANCH   8  33
BRANCH  31  38
ATOM     38  C   UNK d   0       7.321 -15.143  -8.541  0.00  0.00     0.151 C 
BRANCH  38  39
ATOM     39  C   UNK d   0       7.690 -16.334  -9.276  0.00  0.00     0.143 C 
ATOM     40  O   UNK d   0       8.724 -16.977  -9.024  0.00  0.00    -0.650 OA
BRANCH  39  41
ATOM     41  O   UNK d   0       6.866 -16.789 -10.305  0.00  0.00    -0.776 OA
ATOM     42  H   UNK d   0       7.243 -16.734 -11.256  0.00  0.00     0.167 HD
ENDBRANCH  39  41
ENDBRANCH  38  39
ENDBRANCH  31  38
BRANCH  27  43
ATOM     43  C   UNK d   0       8.017 -12.777 -10.392  0.00  0.00     0.052 C 
BRANCH  43  44
ATOM     44  C   UNK d   0       8.630 -13.306 -11.648  0.00  0.00     0.115 C 
BRANCH  44  45
ATOM     45  C   UNK d   0       7.566 -14.069 -12.352  0.00  0.00     0.139 C 
ATOM     46  O   UNK d   0       6.427 -14.118 -11.826  0.00  0.00    -0.650 OA
BRANCH  45  47
ATOM     47  O   UNK d   0       7.778 -14.714 -13.551  0.00  0.00    -0.776 OA
ATOM     48  H   UNK d   0       7.665 -14.248 -14.466  0.00  0.00     0.167 HD
ENDBRANCH  45  47
ENDBRANCH  44  45
ENDBRANCH  43  44
ENDBRANCH  27  43
BRANCH  24  49
ATOM     49  C   UNK d   0      11.467  -8.447 -10.448  0.00  0.00     0.052 C 
BRANCH  49  50
ATOM     50  C   UNK d   0      10.430  -7.382 -10.700  0.00  0.00     0.115 C 
BRANCH  50  51
ATOM     51  C   UNK d   0      10.911  -6.022 -10.904  0.00  0.00     0.139 C 
ATOM     52  O   UNK d   0      12.041  -5.769 -11.385  0.00  0.00    -0.650 OA
BRANCH  51  53
ATOM     53  O   UNK d   0      10.104  -4.950 -10.558  0.00  0.00    -0.776 OA
ATOM     54  H   UNK d   0       9.479  -5.058  -9.778  0.00  0.00     0.167 HD
ENDBRANCH  51  53
ENDBRANCH  50  51
ENDBRANCH  49  50
ENDBRANCH  24  49
BRANCH  21  55
ATOM     55  C   UNK d   0      12.184  -6.803  -7.933  0.00  0.00     0.151 C 
BRANCH  55  56
ATOM     56  C   UNK d   0      11.369  -5.967  -7.038  0.00  0.00     0.143 C 
ATOM     57  O   UNK d   0      11.504  -5.974  -5.799  0.00  0.00    -0.650 OA
BRANCH  56  58
ATOM     58  O   UNK d   0      10.409  -5.139  -7.619  0.00  0.00    -0.776 OA
ATOM     59  H   UNK d   0       9.570  -4.968  -7.036  0.00  0.00     0.167 HD
ENDBRANCH  56  58
ENDBRANCH  55  56
ENDBRANCH  21  55
BRANCH  18  60
ATOM     60  C   UNK d   0      13.601  -8.907  -3.203  0.00  0.00     0.151 C 
BRANCH  60  61
ATOM     61  C   UNK d   0      13.067  -7.778  -2.426  0.00  0.00     0.143 C 
ATOM     62  O   UNK d   0      12.850  -7.747  -1.215  0.00  0.00    -0.650 OA
BRANCH  61  63
ATOM     63  O   UNK d   0      12.781  -6.612  -3.177  0.00  0.00    -0.776 OA
ATOM     64  H   UNK d   0      11.973  -6.051  -2.975  0.00  0.00     0.167 HD
ENDBRANCH  61  63
ENDBRANCH  60  61
ENDBRANCH  18  60
BRANCH  14  65
ATOM     65  C   UNK d   0      12.838 -11.155  -1.312  0.00  0.00     0.052 C 
BRANCH  65  66
ATOM     66  C   UNK d   0      14.149 -11.830  -1.509  0.00  0.00     0.115 C 
BRANCH  66  67
ATOM     67  C   UNK d   0      14.342 -12.695  -2.639  0.00  0.00     0.139 C 
ATOM     68  O   UNK d   0      13.800 -13.861  -2.619  0.00  0.00    -0.650 OA
BRANCH  67  69
ATOM     69  O   UNK d   0      15.065 -12.431  -3.802  0.00  0.00    -0.776 OA
ATOM     70  H   UNK d   0      14.522 -12.057  -4.593  0.00  0.00     0.167 HD
ENDBRANCH  67  69
ENDBRANCH  66  67
ENDBRANCH  65  66
ENDBRANCH  14  65
ENDBRANCH   6   7
ENDBRANCH   5   6
ENDBRANCH   2   5
TORSDOF 28
ENDMDL
MODEL 9
REMARK VINA RESULT:      -8.6      3.903     12.469
REMARK  28 active torsions:
REMARK  status: ('A' for Active; 'I' for Inactive)
REMARK    1  A    between atoms: C_2  and  O_3 
REMARK    2  A    between atoms: C_2  and  C_4 
REMARK    3  A    between atoms: C_4  and  C_5 
REMARK    4  A    between atoms: C_5  and  C_6 
REMARK    5  A    between atoms: C_7  and  C_8 
REMARK    6  A    between atoms: C_8  and  C_9 
REMARK    7  A    between atoms: C_9  and  O_11 
REMARK    8  A    between atoms: C_28  and  C_29 
REMARK    9  A    between atoms: C_29  and  C_30 
REMARK   10  A    between atoms: C_30  and  O_32 
REMARK   11  A    between atoms: C_33  and  C_34 
REMARK   12  A    between atoms: C_34  and  C_35 
REMARK   13  A    between atoms: C_35  and  C_36 
REMARK   14  A    between atoms: C_36  and  O_38 
REMARK   15  A    between atoms: C_39  and  C_40 
REMARK   16  A    between atoms: C_40  and  C_41 
REMARK   17  A    between atoms: C_41  and  C_42 
REMARK   18  A    between atoms: C_42  and  O_44 
REMARK   19  A    between atoms: C_45  and  C_46 
REMARK   20  A    between atoms: C_46  and  C_47 
REMARK   21  A    between atoms: C_47  and  O_49 
REMARK   22  A    between atoms: C_50  and  C_51 
REMARK   23  A    between atoms: C_51  and  C_52 
REMARK   24  A    between atoms: C_52  and  O_54 
REMARK   25  A    between atoms: C_55  and  C_56 
REMARK   26  A    between atoms: C_56  and  C_57 
REMARK   27  A    between atoms: C_57  and  C_58 
REMARK   28  A    between atoms: C_58  and  O_60 
ROOT
ATOM      1  O   UNK d   0      13.869 -14.675  -2.097  0.00  0.00    -0.650 OA
ATOM      2  C   UNK d   0      12.792 -15.308  -2.163  0.00  0.00     0.139 C 
ENDROOT
BRANCH   2   3
ATOM      3  O   UNK d   0      12.679 -16.514  -1.514  0.00  0.00    -0.776 OA
ATOM      4  H   UNK d   0      13.102 -16.661  -0.596  0.00  0.00     0.167 HD
ENDBRANCH   2   3
BRANCH   2   5
ATOM      5  C   UNK d   0      11.646 -14.755  -2.939  0.00  0.00     0.115 C 
BRANCH   5   6
ATOM      6  C   UNK d   0      10.352 -15.331  -2.432  0.00  0.00     0.052 C 
BRANCH   6   7
ATOM      7  C   UNK d   0       9.643 -16.169  -3.469  0.00  0.00    -0.020 A 
ATOM      8  C   UNK d   0       9.274 -17.420  -3.368  0.00  0.00    -0.011 A 
ATOM      9  C   UNK d   0       8.637 -17.798  -4.618  0.00  0.00     0.067 A 
ATOM     10  C   UNK d   0       8.024 -18.951  -5.134  0.00  0.00     0.062 C 
ATOM     11  N   UNK d   0       8.666 -16.718  -5.426  0.00  0.00    -0.248 NA
ATOM     12  C   UNK d   0       7.212 -19.043  -6.270  0.00  0.00     0.041 A 
ATOM     13  N   UNK d   0       7.334 -18.493  -7.493  0.00  0.00    -0.355 N 
ATOM     14  C   UNK d   0       6.013 -19.773  -6.192  0.00  0.00    -0.022 A 
ATOM     15  C   UNK d   0       6.239 -18.849  -8.191  0.00  0.00     0.042 A 
ATOM     16  H   UNK d   0       8.186 -17.881  -7.862  0.00  0.00     0.166 HD
ATOM     17  C   UNK d   0       5.862 -18.549  -9.515  0.00  0.00     0.062 C 
ATOM     18  C   UNK d   0       5.387 -19.652  -7.408  0.00  0.00    -0.013 A 
ATOM     19  C   UNK d   0       5.913 -17.348 -10.175  0.00  0.00     0.067 A 
ATOM     20  N   UNK d   0       6.584 -16.359  -9.579  0.00  0.00    -0.248 NA
ATOM     21  C   UNK d   0       5.390 -16.818 -11.423  0.00  0.00    -0.011 A 
ATOM     22  C   UNK d   0       6.536 -15.221 -10.347  0.00  0.00     0.066 A 
ATOM     23  C   UNK d   0       7.228 -14.121  -9.862  0.00  0.00     0.062 C 
ATOM     24  C   UNK d   0       5.755 -15.572 -11.516  0.00  0.00    -0.020 A 
ATOM     25  C   UNK d   0       8.049 -14.053  -8.725  0.00  0.00     0.041 A 
ATOM     26  N   UNK d   0       7.920 -14.587  -7.504  0.00  0.00    -0.355 N 
ATOM     27  C   UNK d   0       9.255 -13.323  -8.805  0.00  0.00    -0.022 A 
ATOM     28  C   UNK d   0       9.007 -14.226  -6.804  0.00  0.00     0.042 A 
ATOM     29  H   UNK d   0       7.058 -15.193  -7.131  0.00  0.00     0.166 HD
ATOM     30  C   UNK d   0       9.390 -14.509  -5.484  0.00  0.00     0.062 C 
ATOM     31  C   UNK d   0       9.867 -13.428  -7.594  0.00  0.00    -0.013 A 
ATOM     32  C   UNK d   0       9.258 -15.704  -4.793  0.00  0.00     0.066 A 
BRANCH   8  33
ATOM     33  C   UNK d   0       9.465 -18.308  -2.206  0.00  0.00     0.151 C 
BRANCH  33  34
ATOM     34  C   UNK d   0       8.307 -18.312  -1.294  0.00  0.00     0.143 C 
ATOM     35  O   UNK d   0       7.348 -19.072  -1.487  0.00  0.00    -0.650 OA
BRANCH  34  36
ATOM     36  O   UNK d   0       8.295 -17.458  -0.215  0.00  0.00    -0.776 OA
ATOM     37  H   UNK d   0       8.706 -16.517  -0.274  0.00  0.00     0.167 HD
ENDBRANCH  34  36
ENDBRANCH  33  34
ENDBRANCH   8  33
BRANCH  31  38
ATOM     38  C   UNK d   0      11.196 -12.819  -7.212  0.00  0.00     0.151 C 
BRANCH  38  39
ATOM     39  C   UNK d   0      11.056 -11.571  -6.492  0.00  0.00     0.143 C 
ATOM     40  O   UNK d   0      10.648 -11.523  -5.318  0.00  0.00    -0.650 OA
BRANCH  39  41
ATOM     41  O   UNK d   0      11.387 -10.373  -7.124  0.00  0.00    -0.776 OA
ATOM     42  H   UNK d   0      11.439  -9.538  -6.532  0.00  0.00     0.167 HD
ENDBRANCH  39  41
ENDBRANCH  38  39
ENDBRANCH  31  38
BRANCH  27  43
ATOM     43  C   UNK d   0       9.829 -12.547  -9.963  0.00  0.00     0.052 C 
BRANCH  43  44
ATOM     44  C   UNK d   0       9.577 -11.077  -9.873  0.00  0.00     0.115 C 
BRANCH  44  45
ATOM     45  C   UNK d   0      10.819 -10.403 -10.335  0.00  0.00     0.139 C 
ATOM     46  O   UNK d   0      11.915 -10.986 -10.142  0.00  0.00    -0.650 OA
BRANCH  45  47
ATOM     47  O   UNK d   0      10.814  -9.178 -10.966  0.00  0.00    -0.776 OA
ATOM     48  H   UNK d   0      10.078  -8.894 -11.632  0.00  0.00     0.167 HD
ENDBRANCH  45  47
ENDBRANCH  44  45
ENDBRANCH  43  44
ENDBRANCH  27  43
BRANCH  24  49
ATOM     49  C   UNK d   0       5.472 -14.666 -12.642  0.00  0.00     0.052 C 
BRANCH  49  50
ATOM     50  C   UNK d   0       6.651 -14.609 -13.578  0.00  0.00     0.115 C 
BRANCH  50  51
ATOM     51  C   UNK d   0       6.464 -15.153 -14.917  0.00  0.00     0.139 C 
ATOM     52  O   UNK d   0       7.347 -15.822 -15.504  0.00  0.00    -0.650 OA
BRANCH  51  53
ATOM     53  O   UNK d   0       5.271 -14.932 -15.587  0.00  0.00    -0.776 OA
ATOM     54  H   UNK d   0       4.418 -15.239 -15.153  0.00  0.00     0.167 HD
ENDBRANCH  51  53
ENDBRANCH  50  51
ENDBRANCH  49  50
ENDBRANCH  24  49
BRANCH  21  55
ATOM     55  C   UNK d   0       4.584 -17.615 -12.395  0.00  0.00     0.151 C 
BRANCH  55  56
ATOM     56  C   UNK d   0       5.355 -18.727 -12.970  0.00  0.00     0.143 C 
ATOM     57  O   UNK d   0       6.243 -18.560 -13.829  0.00  0.00    -0.650 OA
BRANCH  56  58
ATOM     58  O   UNK d   0       5.066 -20.016 -12.524  0.00  0.00    -0.776 OA
ATOM     59  H   UNK d   0       4.063 -20.272 -12.550  0.00  0.00     0.167 HD
ENDBRANCH  56  58
ENDBRANCH  55  56
ENDBRANCH  21  55
BRANCH  18  60
ATOM     60  C   UNK d   0       4.059 -20.275  -7.763  0.00  0.00     0.151 C 
BRANCH  60  61
ATOM     61  C   UNK d   0       4.372 -21.437  -8.608  0.00  0.00     0.143 C 
ATOM     62  O   UNK d   0       4.405 -21.473  -9.838  0.00  0.00    -0.650 OA
BRANCH  61  63
ATOM     63  O   UNK d   0       4.662 -22.632  -7.906  0.00  0.00    -0.776 OA
ATOM     64  H   UNK d   0       4.986 -22.609  -6.955  0.00  0.00     0.167 HD
ENDBRANCH  61  63
ENDBRANCH  60  61
ENDBRANCH  18  60
BRANCH  14  65
ATOM     65  C   UNK d   0       5.467 -20.649  -5.100  0.00  0.00     0.052 C 
BRANCH  65  66
ATOM     66  C   UNK d   0       4.673 -19.896  -4.093  0.00  0.00     0.115 C 
BRANCH  66  67
ATOM     67  C   UNK d   0       4.425 -20.477  -2.803  0.00  0.00     0.139 C 
ATOM     68  O   UNK d   0       3.804 -19.774  -1.923  0.00  0.00    -0.650 OA
BRANCH  67  69
ATOM     69  O   UNK d   0       4.779 -21.750  -2.359  0.00  0.00    -0.776 OA
ATOM     70  H   UNK d   0       4.602 -21.942  -1.362  0.00  0.00     0.167 HD
ENDBRANCH  67  69
ENDBRANCH  66  67
ENDBRANCH  65  66
ENDBRANCH  14  65
ENDBRANCH   6   7
ENDBRANCH   5   6
ENDBRANCH   2   5
TORSDOF 28
ENDMDL
MODEL 10
REMARK VINA RESULT:      -8.4      2.961      9.012
REMARK  28 active torsions:
REMARK  status: ('A' for Active; 'I' for Inactive)
REMARK    1  A    between atoms: C_2  and  O_3 
REMARK    2  A    between atoms: C_2  and  C_4 
REMARK    3  A    between atoms: C_4  and  C_5 
REMARK    4  A    between atoms: C_5  and  C_6 
REMARK    5  A    between atoms: C_7  and  C_8 
REMARK    6  A    between atoms: C_8  and  C_9 
REMARK    7  A    between atoms: C_9  and  O_11 
REMARK    8  A    between atoms: C_28  and  C_29 
REMARK    9  A    between atoms: C_29  and  C_30 
REMARK   10  A    between atoms: C_30  and  O_32 
REMARK   11  A    between atoms: C_33  and  C_34 
REMARK   12  A    between atoms: C_34  and  C_35 
REMARK   13  A    between atoms: C_35  and  C_36 
REMARK   14  A    between atoms: C_36  and  O_38 
REMARK   15  A    between atoms: C_39  and  C_40 
REMARK   16  A    between atoms: C_40  and  C_41 
REMARK   17  A    between atoms: C_41  and  C_42 
REMARK   18  A    between atoms: C_42  and  O_44 
REMARK   19  A    between atoms: C_45  and  C_46 
REMARK   20  A    between atoms: C_46  and  C_47 
REMARK   21  A    between atoms: C_47  and  O_49 
REMARK   22  A    between atoms: C_50  and  C_51 
REMARK   23  A    between atoms: C_51  and  C_52 
REMARK   24  A    between atoms: C_52  and  O_54 
REMARK   25  A    between atoms: C_55  and  C_56 
REMARK   26  A    between atoms: C_56  and  C_57 
REMARK   27  A    between atoms: C_57  and  C_58 
REMARK   28  A    between atoms: C_58  and  O_60 
ROOT
ATOM      1  O   UNK d   0       7.356 -18.611  -0.888  0.00  0.00    -0.650 OA
ATOM      2  C   UNK d   0       8.427 -18.591  -1.534  0.00  0.00     0.139 C 
ENDROOT
BRANCH   2   3
ATOM      3  O   UNK d   0       9.501 -17.894  -1.037  0.00  0.00    -0.776 OA
ATOM      4  H   UNK d   0      10.164 -17.430  -1.662  0.00  0.00     0.167 HD
ENDBRANCH   2   3
BRANCH   2   5
ATOM      5  C   UNK d   0       8.531 -19.319  -2.831  0.00  0.00     0.115 C 
BRANCH   5   6
ATOM      6  C   UNK d   0       7.245 -19.192  -3.601  0.00  0.00     0.052 C 
BRANCH   6   7
ATOM      7  C   UNK d   0       7.420 -18.455  -4.908  0.00  0.00    -0.020 A 
ATOM      8  C   UNK d   0       6.893 -18.751  -6.068  0.00  0.00    -0.011 A 
ATOM      9  C   UNK d   0       7.352 -17.764  -7.030  0.00  0.00     0.067 A 
ATOM     10  C   UNK d   0       7.145 -17.508  -8.395  0.00  0.00     0.062 C 
ATOM     11  N   UNK d   0       8.159 -16.907  -6.371  0.00  0.00    -0.248 NA
ATOM     12  C   UNK d   0       7.456 -16.336  -9.094  0.00  0.00     0.041 A 
ATOM     13  N   UNK d   0       8.542 -15.541  -9.052  0.00  0.00    -0.355 N 
ATOM     14  C   UNK d   0       6.502 -15.795  -9.974  0.00  0.00    -0.022 A 
ATOM     15  C   UNK d   0       8.298 -14.506  -9.878  0.00  0.00     0.042 A 
ATOM     16  H   UNK d   0       9.471 -15.718  -8.466  0.00  0.00     0.166 HD
ATOM     17  C   UNK d   0       9.096 -13.392 -10.206  0.00  0.00     0.062 C 
ATOM     18  C   UNK d   0       7.028 -14.630 -10.474  0.00  0.00    -0.013 A 
ATOM     19  C   UNK d   0       9.828 -12.581  -9.376  0.00  0.00     0.067 A 
ATOM     20  N   UNK d   0       9.985 -12.990  -8.114  0.00  0.00    -0.248 NA
ATOM     21  C   UNK d   0      10.515 -11.306  -9.501  0.00  0.00    -0.011 A 
ATOM     22  C   UNK d   0      10.722 -12.075  -7.405  0.00  0.00     0.066 A 
ATOM     23  C   UNK d   0      10.994 -12.394  -6.082  0.00  0.00     0.062 C 
ATOM     24  C   UNK d   0      11.032 -11.013  -8.342  0.00  0.00    -0.020 A 
ATOM     25  C   UNK d   0      10.683 -13.582  -5.403  0.00  0.00     0.041 A 
ATOM     26  N   UNK d   0       9.598 -14.364  -5.433  0.00  0.00    -0.355 N 
ATOM     27  C   UNK d   0      11.644 -14.126  -4.523  0.00  0.00    -0.022 A 
ATOM     28  C   UNK d   0       9.835 -15.393  -4.604  0.00  0.00     0.042 A 
ATOM     29  H   UNK d   0       8.661 -14.179  -6.014  0.00  0.00     0.166 HD
ATOM     30  C   UNK d   0       9.047 -16.503  -4.261  0.00  0.00     0.062 C 
ATOM     31  C   UNK d   0      11.115 -15.273  -4.013  0.00  0.00    -0.013 A 
ATOM     32  C   UNK d   0       8.241 -17.267  -5.090  0.00  0.00     0.066 A 
BRANCH   8  33
ATOM     33  C   UNK d   0       5.996 -19.882  -6.369  0.00  0.00     0.151 C 
BRANCH  33  34
ATOM     34  C   UNK d   0       4.598 -19.463  -6.574  0.00  0.00     0.143 C 
ATOM     35  O   UNK d   0       3.867 -19.191  -5.611  0.00  0.00    -0.650 OA
BRANCH  34  36
ATOM     36  O   UNK d   0       4.100 -19.375  -7.854  0.00  0.00    -0.776 OA
ATOM     37  H   UNK d   0       3.329 -18.733  -8.084  0.00  0.00     0.167 HD
ENDBRANCH  34  36
ENDBRANCH  33  34
ENDBRANCH   8  33
BRANCH  31  38
ATOM     38  C   UNK d   0      11.789 -16.206  -3.035  0.00  0.00     0.151 C 
BRANCH  38  39
ATOM     39  C   UNK d   0      12.028 -15.592  -1.746  0.00  0.00     0.143 C 
ATOM     40  O   UNK d   0      11.179 -14.882  -1.179  0.00  0.00    -0.650 OA
BRANCH  39  41
ATOM     41  O   UNK d   0      13.250 -15.796  -1.105  0.00  0.00    -0.776 OA
ATOM     42  H   UNK d   0      13.770 -16.641  -1.361  0.00  0.00     0.167 HD
ENDBRANCH  39  41
ENDBRANCH  38  39
ENDBRANCH  31  38
BRANCH  27  43
ATOM     43  C   UNK d   0      13.011 -13.607  -4.156  0.00  0.00     0.052 C 
BRANCH  43  44
ATOM     44  C   UNK d   0      12.972 -12.480  -3.176  0.00  0.00     0.115 C 
BRANCH  44  45
ATOM     45  C   UNK d   0      14.361 -11.964  -3.065  0.00  0.00     0.139 C 
ATOM     46  O   UNK d   0      14.660 -11.280  -2.055  0.00  0.00    -0.650 OA
BRANCH  45  47
ATOM     47  O   UNK d   0      15.327 -12.211  -4.017  0.00  0.00    -0.776 OA
ATOM     48  H   UNK d   0      15.374 -13.092  -4.554  0.00  0.00     0.167 HD
ENDBRANCH  45  47
ENDBRANCH  44  45
ENDBRANCH  43  44
ENDBRANCH  27  43
BRANCH  24  49
ATOM     49  C   UNK d   0      11.847  -9.827  -8.030  0.00  0.00     0.052 C 
BRANCH  49  50
ATOM     50  C   UNK d   0      10.962  -8.672  -7.634  0.00  0.00     0.115 C 
BRANCH  50  51
ATOM     51  C   UNK d   0      10.943  -8.302  -6.226  0.00  0.00     0.139 C 
ATOM     52  O   UNK d   0      11.552  -8.956  -5.346  0.00  0.00    -0.650 OA
BRANCH  51  53
ATOM     53  O   UNK d   0      10.225  -7.188  -5.819  0.00  0.00    -0.776 OA
ATOM     54  H   UNK d   0       9.269  -7.315  -5.538  0.00  0.00     0.167 HD
ENDBRANCH  51  53
ENDBRANCH  50  51
ENDBRANCH  49  50
ENDBRANCH  24  49
BRANCH  21  55
ATOM     55  C   UNK d   0      10.586 -10.516 -10.765  0.00  0.00     0.151 C 
BRANCH  55  56
ATOM     56  C   UNK d   0      11.971 -10.335 -11.225  0.00  0.00     0.143 C 
ATOM     57  O   UNK d   0      12.400  -9.250 -11.666  0.00  0.00    -0.650 OA
BRANCH  56  58
ATOM     58  O   UNK d   0      12.827 -11.433 -11.157  0.00  0.00    -0.776 OA
ATOM     59  H   UNK d   0      13.814 -11.233 -11.398  0.00  0.00     0.167 HD
ENDBRANCH  56  58
ENDBRANCH  55  56
ENDBRANCH  21  55
BRANCH  18  60
ATOM     60  C   UNK d   0       6.333 -13.718 -11.454  0.00  0.00     0.151 C 
BRANCH  60  61
ATOM     61  C   UNK d   0       6.516 -14.332 -12.777  0.00  0.00     0.143 C 
ATOM     62  O   UNK d   0       5.634 -14.703 -13.552  0.00  0.00    -0.650 OA
BRANCH  61  63
ATOM     63  O   UNK d   0       7.863 -14.505 -13.180  0.00  0.00    -0.776 OA
ATOM     64  H   UNK d   0       8.357 -13.774 -13.661  0.00  0.00     0.167 HD
ENDBRANCH  61  63
ENDBRANCH  60  61
ENDBRANCH  18  60
BRANCH  14  65
ATOM     65  C   UNK d   0       5.185 -16.341 -10.450  0.00  0.00     0.052 C 
BRANCH  65  66
ATOM     66  C   UNK d   0       5.301 -17.698 -11.050  0.00  0.00     0.115 C 
BRANCH  66  67
ATOM     67  C   UNK d   0       5.025 -17.883 -12.447  0.00  0.00     0.139 C 
ATOM     68  O   UNK d   0       3.849 -18.270 -12.794  0.00  0.00    -0.650 OA
BRANCH  67  69
ATOM     69  O   UNK d   0       5.896 -17.695 -13.520  0.00  0.00    -0.776 OA
ATOM     70  H   UNK d   0       6.898 -17.671 -13.285  0.00  0.00     0.167 HD
ENDBRANCH  67  69
ENDBRANCH  66  67
ENDBRANCH  65  66
ENDBRANCH  14  65
ENDBRANCH   6   7
ENDBRANCH   5   6
ENDBRANCH   2   5
TORSDOF 28
ENDMDL
MODEL 11
REMARK VINA RESULT:      -8.4      1.395      7.711
REMARK  28 active torsions:
REMARK  status: ('A' for Active; 'I' for Inactive)
REMARK    1  A    between atoms: C_2  and  O_3 
REMARK    2  A    between atoms: C_2  and  C_4 
REMARK    3  A    between atoms: C_4  and  C_5 
REMARK    4  A    between atoms: C_5  and  C_6 
REMARK    5  A    between atoms: C_7  and  C_8 
REMARK    6  A    between atoms: C_8  and  C_9 
REMARK    7  A    between atoms: C_9  and  O_11 
REMARK    8  A    between atoms: C_28  and  C_29 
REMARK    9  A    between atoms: C_29  and  C_30 
REMARK   10  A    between atoms: C_30  and  O_32 
REMARK   11  A    between atoms: C_33  and  C_34 
REMARK   12  A    between atoms: C_34  and  C_35 
REMARK   13  A    between atoms: C_35  and  C_36 
REMARK   14  A    between atoms: C_36  and  O_38 
REMARK   15  A    between atoms: C_39  and  C_40 
REMARK   16  A    between atoms: C_40  and  C_41 
REMARK   17  A    between atoms: C_41  and  C_42 
REMARK   18  A    between atoms: C_42  and  O_44 
REMARK   19  A    between atoms: C_45  and  C_46 
REMARK   20  A    between atoms: C_46  and  C_47 
REMARK   21  A    between atoms: C_47  and  O_49 
REMARK   22  A    between atoms: C_50  and  C_51 
REMARK   23  A    between atoms: C_51  and  C_52 
REMARK   24  A    between atoms: C_52  and  O_54 
REMARK   25  A    between atoms: C_55  and  C_56 
REMARK   26  A    between atoms: C_56  and  C_57 
REMARK   27  A    between atoms: C_57  and  C_58 
REMARK   28  A    between atoms: C_58  and  O_60 
ROOT
ATOM      1  O   UNK d   0      12.620  -9.832 -10.847  0.00  0.00    -0.650 OA
ATOM      2  C   UNK d   0      11.509  -9.270 -10.733  0.00  0.00     0.139 C 
ENDROOT
BRANCH   2   3
ATOM      3  O   UNK d   0      11.345  -7.997 -11.223  0.00  0.00    -0.776 OA
ATOM      4  H   UNK d   0      11.256  -7.197 -10.593  0.00  0.00     0.167 HD
ENDBRANCH   2   3
BRANCH   2   5
ATOM      5  C   UNK d   0      10.376  -9.978 -10.072  0.00  0.00     0.115 C 
BRANCH   5   6
ATOM      6  C   UNK d   0      10.610 -11.464 -10.095  0.00  0.00     0.052 C 
BRANCH   6   7
ATOM      7  C   UNK d   0      10.258 -12.129  -8.786  0.00  0.00    -0.020 A 
ATOM      8  C   UNK d   0       9.593 -13.241  -8.609  0.00  0.00    -0.011 A 
ATOM      9  C   UNK d   0       9.493 -13.478  -7.178  0.00  0.00     0.067 A 
ATOM     10  C   UNK d   0       8.944 -14.470  -6.352  0.00  0.00     0.062 C 
ATOM     11  N   UNK d   0      10.120 -12.456  -6.559  0.00  0.00    -0.248 NA
ATOM     12  C   UNK d   0       9.190 -14.670  -4.989  0.00  0.00     0.041 A 
ATOM     13  N   UNK d   0       9.288 -13.797  -3.969  0.00  0.00    -0.355 N 
ATOM     14  C   UNK d   0       9.443 -15.974  -4.527  0.00  0.00    -0.022 A 
ATOM     15  C   UNK d   0       9.604 -14.512  -2.873  0.00  0.00     0.042 A 
ATOM     16  H   UNK d   0       9.117 -12.699  -4.018  0.00  0.00     0.166 HD
ATOM     17  C   UNK d   0       9.823 -14.099  -1.544  0.00  0.00     0.062 C 
ATOM     18  C   UNK d   0       9.711 -15.882  -3.184  0.00  0.00    -0.013 A 
ATOM     19  C   UNK d   0      10.552 -13.034  -1.081  0.00  0.00     0.067 A 
ATOM     20  N   UNK d   0      10.958 -12.140  -1.986  0.00  0.00    -0.248 NA
ATOM     21  C   UNK d   0      11.049 -12.590   0.211  0.00  0.00    -0.011 A 
ATOM     22  C   UNK d   0      11.685 -11.144  -1.380  0.00  0.00     0.066 A 
ATOM     23  C   UNK d   0      12.139 -10.124  -2.203  0.00  0.00     0.062 C 
ATOM     24  C   UNK d   0      11.715 -11.486   0.029  0.00  0.00    -0.020 A 
ATOM     25  C   UNK d   0      11.870  -9.935  -3.567  0.00  0.00     0.041 A 
ATOM     26  N   UNK d   0      11.787 -10.801  -4.584  0.00  0.00    -0.355 N 
ATOM     27  C   UNK d   0      11.611  -8.626  -4.029  0.00  0.00    -0.022 A 
ATOM     28  C   UNK d   0      11.480 -10.089  -5.679  0.00  0.00     0.042 A 
ATOM     29  H   UNK d   0      11.969 -11.903  -4.535  0.00  0.00     0.166 HD
ATOM     30  C   UNK d   0      11.269 -10.486  -7.009  0.00  0.00     0.062 C 
ATOM     31  C   UNK d   0      11.363  -8.714  -5.364  0.00  0.00    -0.013 A 
ATOM     32  C   UNK d   0      10.603 -11.610  -7.470  0.00  0.00     0.066 A 
BRANCH   8  33
ATOM     33  C   UNK d   0       9.031 -14.113  -9.657  0.00  0.00     0.151 C 
BRANCH  33  34
ATOM     34  C   UNK d   0       8.191 -13.378 -10.620  0.00  0.00     0.143 C 
ATOM     35  O   UNK d   0       7.340 -12.564 -10.232  0.00  0.00    -0.650 OA
BRANCH  34  36
ATOM     36  O   UNK d   0       8.355 -13.601 -11.968  0.00  0.00    -0.776 OA
ATOM     37  H   UNK d   0       8.800 -14.460 -12.317  0.00  0.00     0.167 HD
ENDBRANCH  34  36
ENDBRANCH  33  34
ENDBRANCH   8  33
BRANCH  31  38
ATOM     38  C   UNK d   0      11.022  -7.566  -6.285  0.00  0.00     0.151 C 
BRANCH  38  39
ATOM     39  C   UNK d   0      12.103  -7.229  -7.186  0.00  0.00     0.143 C 
ATOM     40  O   UNK d   0      13.298  -7.397  -6.885  0.00  0.00    -0.650 OA
BRANCH  39  41
ATOM     41  O   UNK d   0      11.810  -6.695  -8.441  0.00  0.00    -0.776 OA
ATOM     42  H   UNK d   0      11.858  -5.675  -8.531  0.00  0.00     0.167 HD
ENDBRANCH  39  41
ENDBRANCH  38  39
ENDBRANCH  31  38
BRANCH  27  43
ATOM     43  C   UNK d   0      11.594  -7.326  -3.264  0.00  0.00     0.052 C 
BRANCH  43  44
ATOM     44  C   UNK d   0      12.858  -7.069  -2.509  0.00  0.00     0.115 C 
BRANCH  44  45
ATOM     45  C   UNK d   0      13.554  -5.960  -3.211  0.00  0.00     0.139 C 
ATOM     46  O   UNK d   0      14.095  -5.065  -2.515  0.00  0.00    -0.650 OA
BRANCH  45  47
ATOM     47  O   UNK d   0      13.634  -5.878  -4.585  0.00  0.00    -0.776 OA
ATOM     48  H   UNK d   0      14.446  -6.225  -5.120  0.00  0.00     0.167 HD
ENDBRANCH  45  47
ENDBRANCH  44  45
ENDBRANCH  43  44
ENDBRANCH  27  43
BRANCH  24  49
ATOM     49  C   UNK d   0      12.356 -10.676   1.078  0.00  0.00     0.052 C 
BRANCH  49  50
ATOM     50  C   UNK d   0      13.244  -9.626   0.460  0.00  0.00     0.115 C 
BRANCH  50  51
ATOM     51  C   UNK d   0      14.672  -9.720   0.731  0.00  0.00     0.139 C 
ATOM     52  O   UNK d   0      15.520  -9.920  -0.171  0.00  0.00    -0.650 OA
BRANCH  51  53
ATOM     53  O   UNK d   0      15.134  -9.587   2.031  0.00  0.00    -0.776 OA
ATOM     54  H   UNK d   0      15.816 -10.246   2.363  0.00  0.00     0.167 HD
ENDBRANCH  51  53
ENDBRANCH  50  51
ENDBRANCH  49  50
ENDBRANCH  24  49
BRANCH  21  55
ATOM     55  C   UNK d   0      10.802 -13.313   1.494  0.00  0.00     0.151 C 
BRANCH  55  56
ATOM     56  C   UNK d   0       9.859 -12.592   2.361  0.00  0.00     0.143 C 
ATOM     57  O   UNK d   0       9.093 -11.705   1.935  0.00  0.00    -0.650 OA
BRANCH  56  58
ATOM     58  O   UNK d   0       9.834 -12.927   3.714  0.00  0.00    -0.776 OA
ATOM     59  H   UNK d   0       8.893 -12.922   4.148  0.00  0.00     0.167 HD
ENDBRANCH  56  58
ENDBRANCH  55  56
ENDBRANCH  21  55
BRANCH  18  60
ATOM     60  C   UNK d   0      10.046 -17.048  -2.287  0.00  0.00     0.151 C 
BRANCH  60  61
ATOM     61  C   UNK d   0      11.514 -17.080  -2.199  0.00  0.00     0.143 C 
ATOM     62  O   UNK d   0      12.212 -16.636  -1.287  0.00  0.00    -0.650 OA
BRANCH  61  63
ATOM     63  O   UNK d   0      12.170 -17.695  -3.292  0.00  0.00    -0.776 OA
ATOM     64  H   UNK d   0      13.012 -18.227  -3.159  0.00  0.00     0.167 HD
ENDBRANCH  61  63
ENDBRANCH  60  61
ENDBRANCH  18  60
BRANCH  14  65
ATOM     65  C   UNK d   0       9.355 -17.298  -5.231  0.00  0.00     0.052 C 
BRANCH  65  66
ATOM     66  C   UNK d   0       7.996 -17.900  -5.172  0.00  0.00     0.115 C 
BRANCH  66  67
ATOM     67  C   UNK d   0       7.671 -19.010  -6.023  0.00  0.00     0.139 C 
ATOM     68  O   UNK d   0       6.450 -19.409  -6.072  0.00  0.00    -0.650 OA
BRANCH  67  69
ATOM     69  O   UNK d   0       8.535 -19.743  -6.836  0.00  0.00    -0.776 OA
ATOM     70  H   UNK d   0       9.224 -20.329  -6.343  0.00  0.00     0.167 HD
ENDBRANCH  67  69
ENDBRANCH  66  67
ENDBRANCH  65  66
ENDBRANCH  14  65
ENDBRANCH   6   7
ENDBRANCH   5   6
ENDBRANCH   2   5
TORSDOF 28
ENDMDL
MODEL 12
REMARK VINA RESULT:      -8.1      1.663      4.009
REMARK  28 active torsions:
REMARK  status: ('A' for Active; 'I' for Inactive)
REMARK    1  A    between atoms: C_2  and  O_3 
REMARK    2  A    between atoms: C_2  and  C_4 
REMARK    3  A    between atoms: C_4  and  C_5 
REMARK    4  A    between atoms: C_5  and  C_6 
REMARK    5  A    between atoms: C_7  and  C_8 
REMARK    6  A    between atoms: C_8  and  C_9 
REMARK    7  A    between atoms: C_9  and  O_11 
REMARK    8  A    between atoms: C_28  and  C_29 
REMARK    9  A    between atoms: C_29  and  C_30 
REMARK   10  A    between atoms: C_30  and  O_32 
REMARK   11  A    between atoms: C_33  and  C_34 
REMARK   12  A    between atoms: C_34  and  C_35 
REMARK   13  A    between atoms: C_35  and  C_36 
REMARK   14  A    between atoms: C_36  and  O_38 
REMARK   15  A    between atoms: C_39  and  C_40 
REMARK   16  A    between atoms: C_40  and  C_41 
REMARK   17  A    between atoms: C_41  and  C_42 
REMARK   18  A    between atoms: C_42  and  O_44 
REMARK   19  A    between atoms: C_45  and  C_46 
REMARK   20  A    between atoms: C_46  and  C_47 
REMARK   21  A    between atoms: C_47  and  O_49 
REMARK   22  A    between atoms: C_50  and  C_51 
REMARK   23  A    between atoms: C_51  and  C_52 
REMARK   24  A    between atoms: C_52  and  O_54 
REMARK   25  A    between atoms: C_55  and  C_56 
REMARK   26  A    between atoms: C_56  and  C_57 
REMARK   27  A    between atoms: C_57  and  C_58 
REMARK   28  A    between atoms: C_58  and  O_60 
ROOT
ATOM      1  O   UNK d   0       7.793 -18.962  -6.086  0.00  0.00    -0.650 OA
ATOM      2  C   UNK d   0       8.181 -17.789  -6.284  0.00  0.00     0.139 C 
ENDROOT
BRANCH   2   3
ATOM      3  O   UNK d   0       9.165 -17.553  -7.214  0.00  0.00    -0.776 OA
ATOM      4  H   UNK d   0       8.965 -17.044  -8.077  0.00  0.00     0.167 HD
ENDBRANCH   2   3
BRANCH   2   5
ATOM      5  C   UNK d   0       7.580 -16.662  -5.516  0.00  0.00     0.115 C 
BRANCH   5   6
ATOM      6  C   UNK d   0       7.213 -15.539  -6.447  0.00  0.00     0.052 C 
BRANCH   6   7
ATOM      7  C   UNK d   0       8.273 -14.465  -6.508  0.00  0.00    -0.020 A 
ATOM      8  C   UNK d   0       8.828 -13.951  -7.576  0.00  0.00    -0.011 A 
ATOM      9  C   UNK d   0       9.796 -12.959  -7.140  0.00  0.00     0.067 A 
ATOM     10  C   UNK d   0      10.681 -12.065  -7.764  0.00  0.00     0.062 C 
ATOM     11  N   UNK d   0       9.770 -12.938  -5.791  0.00  0.00    -0.248 NA
ATOM     12  C   UNK d   0      11.343 -10.980  -7.179  0.00  0.00     0.041 A 
ATOM     13  N   UNK d   0      11.969 -10.859  -5.993  0.00  0.00    -0.355 N 
ATOM     14  C   UNK d   0      11.358  -9.747  -7.855  0.00  0.00    -0.022 A 
ATOM     15  C   UNK d   0      12.374  -9.578  -5.896  0.00  0.00     0.042 A 
ATOM     16  H   UNK d   0      12.138 -11.667  -5.247  0.00  0.00     0.166 HD
ATOM     17  C   UNK d   0      13.074  -8.917  -4.867  0.00  0.00     0.062 C 
ATOM     18  C   UNK d   0      12.008  -8.850  -7.045  0.00  0.00    -0.013 A 
ATOM     19  C   UNK d   0      12.872  -8.975  -3.512  0.00  0.00     0.067 A 
ATOM     20  N   UNK d   0      12.041  -9.920  -3.063  0.00  0.00    -0.248 NA
ATOM     21  C   UNK d   0      13.336  -8.228  -2.354  0.00  0.00    -0.011 A 
ATOM     22  C   UNK d   0      11.927  -9.845  -1.697  0.00  0.00     0.066 A 
ATOM     23  C   UNK d   0      11.120 -10.797  -1.093  0.00  0.00     0.062 C 
ATOM     24  C   UNK d   0      12.776  -8.740  -1.296  0.00  0.00    -0.020 A 
ATOM     25  C   UNK d   0      10.475 -11.887  -1.697  0.00  0.00     0.041 A 
ATOM     26  N   UNK d   0       9.840 -12.004  -2.869  0.00  0.00    -0.355 N 
ATOM     27  C   UNK d   0      10.464 -13.126  -1.019  0.00  0.00    -0.022 A 
ATOM     28  C   UNK d   0       9.427 -13.278  -2.964  0.00  0.00     0.042 A 
ATOM     29  H   UNK d   0       9.661 -11.188  -3.613  0.00  0.00     0.166 HD
ATOM     30  C   UNK d   0       8.722 -13.947  -3.977  0.00  0.00     0.062 C 
ATOM     31  C   UNK d   0       9.804 -14.011  -1.814  0.00  0.00    -0.013 A 
ATOM     32  C   UNK d   0       8.873 -13.821  -5.349  0.00  0.00     0.066 A 
BRANCH   8  33
ATOM     33  C   UNK d   0       8.542 -14.304  -8.979  0.00  0.00     0.151 C 
BRANCH  33  34
ATOM     34  C   UNK d   0       8.712 -13.165  -9.900  0.00  0.00     0.143 C 
ATOM     35  O   UNK d   0       7.888 -12.240  -9.927  0.00  0.00    -0.650 OA
BRANCH  34  36
ATOM     36  O   UNK d   0       9.801 -13.133 -10.740  0.00  0.00    -0.776 OA
ATOM     37  H   UNK d   0      10.760 -13.091 -10.370  0.00  0.00     0.167 HD
ENDBRANCH  34  36
ENDBRANCH  33  34
ENDBRANCH   8  33
BRANCH  31  38
ATOM     38  C   UNK d   0       9.556 -15.470  -1.509  0.00  0.00     0.151 C 
BRANCH  38  39
ATOM     39  C   UNK d   0      10.543 -16.345  -2.105  0.00  0.00     0.143 C 
ATOM     40  O   UNK d   0      10.303 -17.027  -3.117  0.00  0.00    -0.650 OA
BRANCH  39  41
ATOM     41  O   UNK d   0      11.812 -16.435  -1.536  0.00  0.00    -0.776 OA
ATOM     42  H   UNK d   0      12.610 -16.270  -2.158  0.00  0.00     0.167 HD
ENDBRANCH  39  41
ENDBRANCH  38  39
ENDBRANCH  31  38
BRANCH  27  43
ATOM     43  C   UNK d   0      11.043 -13.487   0.326  0.00  0.00     0.052 C 
BRANCH  43  44
ATOM     44  C   UNK d   0      11.154 -12.322   1.254  0.00  0.00     0.115 C 
BRANCH  44  45
ATOM     45  C   UNK d   0       9.890 -12.279   2.034  0.00  0.00     0.139 C 
ATOM     46  O   UNK d   0       9.802 -12.999   3.059  0.00  0.00    -0.650 OA
BRANCH  45  47
ATOM     47  O   UNK d   0       8.822 -11.482   1.682  0.00  0.00    -0.776 OA
ATOM     48  H   UNK d   0       8.141 -11.748   0.953  0.00  0.00     0.167 HD
ENDBRANCH  45  47
ENDBRANCH  44  45
ENDBRANCH  43  44
ENDBRANCH  27  43
BRANCH  24  49
ATOM     49  C   UNK d   0      12.997  -8.312   0.096  0.00  0.00     0.052 C 
BRANCH  49  50
ATOM     50  C   UNK d   0      13.964  -9.242   0.784  0.00  0.00     0.115 C 
BRANCH  50  51
ATOM     51  C   UNK d   0      13.872  -9.343   2.234  0.00  0.00     0.139 C 
ATOM     52  O   UNK d   0      12.790  -9.556   2.830  0.00  0.00    -0.650 OA
BRANCH  51  53
ATOM     53  O   UNK d   0      15.014  -9.198   3.006  0.00  0.00    -0.776 OA
ATOM     54  H   UNK d   0      15.899  -9.437   2.594  0.00  0.00     0.167 HD
ENDBRANCH  51  53
ENDBRANCH  50  51
ENDBRANCH  49  50
ENDBRANCH  24  49
BRANCH  21  55
ATOM     55  C   UNK d   0      14.293  -7.085  -2.426  0.00  0.00     0.151 C 
BRANCH  55  56
ATOM     56  C   UNK d   0      13.649  -5.857  -2.917  0.00  0.00     0.143 C 
ATOM     57  O   UNK d   0      12.968  -5.823  -3.960  0.00  0.00    -0.650 OA
BRANCH  56  58
ATOM     58  O   UNK d   0      13.819  -4.692  -2.170  0.00  0.00    -0.776 OA
ATOM     59  H   UNK d   0      14.799  -4.480  -1.910  0.00  0.00     0.167 HD
ENDBRANCH  56  58
ENDBRANCH  55  56
ENDBRANCH  21  55
BRANCH  18  60
ATOM     60  C   UNK d   0      12.245  -7.398  -7.378  0.00  0.00     0.151 C 
BRANCH  60  61
ATOM     61  C   UNK d   0      11.168  -6.650  -6.711  0.00  0.00     0.143 C 
ATOM     62  O   UNK d   0      11.024  -5.428  -6.678  0.00  0.00    -0.650 OA
BRANCH  61  63
ATOM     63  O   UNK d   0      10.206  -7.446  -6.043  0.00  0.00    -0.776 OA
ATOM     64  H   UNK d   0      10.415  -7.879  -5.161  0.00  0.00     0.167 HD
ENDBRANCH  61  63
ENDBRANCH  60  61
ENDBRANCH  18  60
BRANCH  14  65
ATOM     65  C   UNK d   0      10.896  -9.381  -9.237  0.00  0.00     0.052 C 
BRANCH  65  66
ATOM     66  C   UNK d   0      12.017  -9.227 -10.203  0.00  0.00     0.115 C 
BRANCH  66  67
ATOM     67  C   UNK d   0      12.635 -10.393 -10.768  0.00  0.00     0.139 C 
ATOM     68  O   UNK d   0      13.725 -10.249 -11.434  0.00  0.00    -0.650 OA
BRANCH  67  69
ATOM     69  O   UNK d   0      12.196 -11.715 -10.688  0.00  0.00    -0.776 OA
ATOM     70  H   UNK d   0      12.747 -12.403 -11.221  0.00  0.00     0.167 HD
ENDBRANCH  67  69
ENDBRANCH  66  67
ENDBRANCH  65  66
ENDBRANCH  14  65
ENDBRANCH   6   7
ENDBRANCH   5   6
ENDBRANCH   2   5
TORSDOF 28
ENDMDL
MODEL 13
REMARK VINA RESULT:      -7.9      3.672      9.239
REMARK  28 active torsions:
REMARK  status: ('A' for Active; 'I' for Inactive)
REMARK    1  A    between atoms: C_2  and  O_3 
REMARK    2  A    between atoms: C_2  and  C_4 
REMARK    3  A    between atoms: C_4  and  C_5 
REMARK    4  A    between atoms: C_5  and  C_6 
REMARK    5  A    between atoms: C_7  and  C_8 
REMARK    6  A    between atoms: C_8  and  C_9 
REMARK    7  A    between atoms: C_9  and  O_11 
REMARK    8  A    between atoms: C_28  and  C_29 
REMARK    9  A    between atoms: C_29  and  C_30 
REMARK   10  A    between atoms: C_30  and  O_32 
REMARK   11  A    between atoms: C_33  and  C_34 
REMARK   12  A    between atoms: C_34  and  C_35 
REMARK   13  A    between atoms: C_35  and  C_36 
REMARK   14  A    between atoms: C_36  and  O_38 
REMARK   15  A    between atoms: C_39  and  C_40 
REMARK   16  A    between atoms: C_40  and  C_41 
REMARK   17  A    between atoms: C_41  and  C_42 
REMARK   18  A    between atoms: C_42  and  O_44 
REMARK   19  A    between atoms: C_45  and  C_46 
REMARK   20  A    between atoms: C_46  and  C_47 
REMARK   21  A    between atoms: C_47  and  O_49 
REMARK   22  A    between atoms: C_50  and  C_51 
REMARK   23  A    between atoms: C_51  and  C_52 
REMARK   24  A    between atoms: C_52  and  O_54 
REMARK   25  A    between atoms: C_55  and  C_56 
REMARK   26  A    between atoms: C_56  and  C_57 
REMARK   27  A    between atoms: C_57  and  C_58 
REMARK   28  A    between atoms: C_58  and  O_60 
ROOT
ATOM      1  O   UNK d   0       6.098 -20.144  -4.136  0.00  0.00    -0.650 OA
ATOM      2  C   UNK d   0       5.756 -20.527  -5.277  0.00  0.00     0.139 C 
ENDROOT
BRANCH   2   3
ATOM      3  O   UNK d   0       6.723 -20.793  -6.216  0.00  0.00    -0.776 OA
ATOM      4  H   UNK d   0       7.118 -20.047  -6.793  0.00  0.00     0.167 HD
ENDBRANCH   2   3
BRANCH   2   5
ATOM      5  C   UNK d   0       4.313 -20.690  -5.610  0.00  0.00     0.115 C 
BRANCH   5   6
ATOM      6  C   UNK d   0       3.677 -19.345  -5.834  0.00  0.00     0.052 C 
BRANCH   6   7
ATOM      7  C   UNK d   0       4.310 -18.586  -6.975  0.00  0.00    -0.020 A 
ATOM      8  C   UNK d   0       4.009 -18.659  -8.246  0.00  0.00    -0.011 A 
ATOM      9  C   UNK d   0       4.890 -17.754  -8.965  0.00  0.00     0.067 A 
ATOM     10  C   UNK d   0       5.066 -17.359 -10.301  0.00  0.00     0.062 C 
ATOM     11  N   UNK d   0       5.700 -17.175  -8.054  0.00  0.00    -0.248 NA
ATOM     12  C   UNK d   0       5.788 -16.257 -10.771  0.00  0.00     0.041 A 
ATOM     13  N   UNK d   0       6.988 -15.764 -10.409  0.00  0.00    -0.355 N 
ATOM     14  C   UNK d   0       5.211 -15.434 -11.755  0.00  0.00    -0.022 A 
ATOM     15  C   UNK d   0       7.184 -14.646 -11.133  0.00  0.00     0.042 A 
ATOM     16  H   UNK d   0       7.692 -16.209  -9.672  0.00  0.00     0.166 HD
ATOM     17  C   UNK d   0       8.269 -13.747 -11.151  0.00  0.00     0.062 C 
ATOM     18  C   UNK d   0       6.090 -14.406 -11.988  0.00  0.00    -0.013 A 
ATOM     19  C   UNK d   0       8.957 -13.206 -10.095  0.00  0.00     0.067 A 
ATOM     20  N   UNK d   0       8.723 -13.728  -8.888  0.00  0.00    -0.248 NA
ATOM     21  C   UNK d   0       9.927 -12.138  -9.918  0.00  0.00    -0.011 A 
ATOM     22  C   UNK d   0       9.468 -13.078  -7.935  0.00  0.00     0.066 A 
ATOM     23  C   UNK d   0       9.349 -13.547  -6.635  0.00  0.00     0.062 C 
ATOM     24  C   UNK d   0      10.219 -12.066  -8.651  0.00  0.00    -0.020 A 
ATOM     25  C   UNK d   0       8.628 -14.664  -6.186  0.00  0.00     0.041 A 
ATOM     26  N   UNK d   0       7.428 -15.145  -6.534  0.00  0.00    -0.355 N 
ATOM     27  C   UNK d   0       9.210 -15.492  -5.201  0.00  0.00    -0.022 A 
ATOM     28  C   UNK d   0       7.227 -16.256  -5.807  0.00  0.00     0.042 A 
ATOM     29  H   UNK d   0       6.718 -14.691  -7.267  0.00  0.00     0.166 HD
ATOM     30  C   UNK d   0       6.149 -17.154  -5.773  0.00  0.00     0.062 C 
ATOM     31  C   UNK d   0       8.331 -16.502  -4.956  0.00  0.00    -0.013 A 
ATOM     32  C   UNK d   0       5.401 -17.633  -6.837  0.00  0.00     0.066 A 
BRANCH   8  33
ATOM     33  C   UNK d   0       2.971 -19.505  -8.863  0.00  0.00     0.151 C 
BRANCH  33  34
ATOM     34  C   UNK d   0       1.861 -18.722  -9.434  0.00  0.00     0.143 C 
ATOM     35  O   UNK d   0       1.428 -17.716  -8.854  0.00  0.00    -0.650 OA
BRANCH  34  36
ATOM     36  O   UNK d   0       1.299 -19.116 -10.626  0.00  0.00    -0.776 OA
ATOM     37  H   UNK d   0       0.762 -18.458 -11.207  0.00  0.00     0.167 HD
ENDBRANCH  34  36
ENDBRANCH  33  34
ENDBRANCH   8  33
BRANCH  31  38
ATOM     38  C   UNK d   0       8.530 -17.641  -3.983  0.00  0.00     0.151 C 
BRANCH  38  39
ATOM     39  C   UNK d   0       9.374 -18.691  -4.513  0.00  0.00     0.143 C 
ATOM     40  O   UNK d   0      10.341 -19.150  -3.881  0.00  0.00    -0.650 OA
BRANCH  39  41
ATOM     41  O   UNK d   0       9.104 -19.216  -5.777  0.00  0.00    -0.776 OA
ATOM     42  H   UNK d   0       8.368 -18.755  -6.321  0.00  0.00     0.167 HD
ENDBRANCH  39  41
ENDBRANCH  38  39
ENDBRANCH  31  38
BRANCH  27  43
ATOM     43  C   UNK d   0      10.539 -15.359  -4.501  0.00  0.00     0.052 C 
BRANCH  43  44
ATOM     44  C   UNK d   0      10.430 -14.764  -3.134  0.00  0.00     0.115 C 
BRANCH  44  45
ATOM     45  C   UNK d   0      11.377 -15.514  -2.268  0.00  0.00     0.139 C 
ATOM     46  O   UNK d   0      12.027 -14.870  -1.407  0.00  0.00    -0.650 OA
BRANCH  45  47
ATOM     47  O   UNK d   0      11.564 -16.875  -2.369  0.00  0.00    -0.776 OA
ATOM     48  H   UNK d   0      11.686 -17.359  -3.273  0.00  0.00     0.167 HD
ENDBRANCH  45  47
ENDBRANCH  44  45
ENDBRANCH  43  44
ENDBRANCH  27  43
BRANCH  24  49
ATOM     49  C   UNK d   0      11.190 -11.146  -8.034  0.00  0.00     0.052 C 
BRANCH  49  50
ATOM     50  C   UNK d   0      10.578  -9.780  -7.855  0.00  0.00     0.115 C 
BRANCH  50  51
ATOM     51  C   UNK d   0      11.221  -8.883  -6.905  0.00  0.00     0.139 C 
ATOM     52  O   UNK d   0      10.573  -8.113  -6.158  0.00  0.00    -0.650 OA
BRANCH  51  53
ATOM     53  O   UNK d   0      12.604  -8.863  -6.807  0.00  0.00    -0.776 OA
ATOM     54  H   UNK d   0      13.046  -9.515  -6.183  0.00  0.00     0.167 HD
ENDBRANCH  51  53
ENDBRANCH  50  51
ENDBRANCH  49  50
ENDBRANCH  24  49
BRANCH  21  55
ATOM     55  C   UNK d   0      10.465 -11.305 -11.033  0.00  0.00     0.151 C 
BRANCH  55  56
ATOM     56  C   UNK d   0      11.935 -11.249 -11.022  0.00  0.00     0.143 C 
ATOM     57  O   UNK d   0      12.649 -12.270 -11.072  0.00  0.00    -0.650 OA
BRANCH  56  58
ATOM     58  O   UNK d   0      12.537  -9.994 -10.951  0.00  0.00    -0.776 OA
ATOM     59  H   UNK d   0      12.506  -9.548 -10.017  0.00  0.00     0.167 HD
ENDBRANCH  56  58
ENDBRANCH  55  56
ENDBRANCH  21  55
BRANCH  18  60
ATOM     60  C   UNK d   0       5.866 -13.282 -12.969  0.00  0.00     0.151 C 
BRANCH  60  61
ATOM     61  C   UNK d   0       6.026 -13.875 -14.305  0.00  0.00     0.143 C 
ATOM     62  O   UNK d   0       6.967 -14.561 -14.705  0.00  0.00    -0.650 OA
BRANCH  61  63
ATOM     63  O   UNK d   0       4.969 -13.615 -15.211  0.00  0.00    -0.776 OA
ATOM     64  H   UNK d   0       4.045 -13.971 -15.045  0.00  0.00     0.167 HD
ENDBRANCH  61  63
ENDBRANCH  60  61
ENDBRANCH  18  60
BRANCH  14  65
ATOM     65  C   UNK d   0       3.949 -15.598 -12.553  0.00  0.00     0.052 C 
BRANCH  65  66
ATOM     66  C   UNK d   0       2.788 -14.881 -11.961  0.00  0.00     0.115 C 
BRANCH  66  67
ATOM     67  C   UNK d   0       1.637 -15.624 -11.532  0.00  0.00     0.139 C 
ATOM     68  O   UNK d   0       1.258 -16.631 -12.236  0.00  0.00    -0.650 OA
BRANCH  67  69
ATOM     69  O   UNK d   0       0.841 -15.392 -10.411  0.00  0.00    -0.776 OA
ATOM     70  H   UNK d   0       0.890 -14.442 -10.015  0.00  0.00     0.167 HD
ENDBRANCH  67  69
ENDBRANCH  66  67
ENDBRANCH  65  66
ENDBRANCH  14  65
ENDBRANCH   6   7
ENDBRANCH   5   6
ENDBRANCH   2   5
TORSDOF 28
ENDMDL
MODEL 14
REMARK VINA RESULT:      -7.9      3.723     10.138
REMARK  28 active torsions:
REMARK  status: ('A' for Active; 'I' for Inactive)
REMARK    1  A    between atoms: C_2  and  O_3 
REMARK    2  A    between atoms: C_2  and  C_4 
REMARK    3  A    between atoms: C_4  and  C_5 
REMARK    4  A    between atoms: C_5  and  C_6 
REMARK    5  A    between atoms: C_7  and  C_8 
REMARK    6  A    between atoms: C_8  and  C_9 
REMARK    7  A    between atoms: C_9  and  O_11 
REMARK    8  A    between atoms: C_28  and  C_29 
REMARK    9  A    between atoms: C_29  and  C_30 
REMARK   10  A    between atoms: C_30  and  O_32 
REMARK   11  A    between atoms: C_33  and  C_34 
REMARK   12  A    between atoms: C_34  and  C_35 
REMARK   13  A    between atoms: C_35  and  C_36 
REMARK   14  A    between atoms: C_36  and  O_38 
REMARK   15  A    between atoms: C_39  and  C_40 
REMARK   16  A    between atoms: C_40  and  C_41 
REMARK   17  A    between atoms: C_41  and  C_42 
REMARK   18  A    between atoms: C_42  and  O_44 
REMARK   19  A    between atoms: C_45  and  C_46 
REMARK   20  A    between atoms: C_46  and  C_47 
REMARK   21  A    between atoms: C_47  and  O_49 
REMARK   22  A    between atoms: C_50  and  C_51 
REMARK   23  A    between atoms: C_51  and  C_52 
REMARK   24  A    between atoms: C_52  and  O_54 
REMARK   25  A    between atoms: C_55  and  C_56 
REMARK   26  A    between atoms: C_56  and  C_57 
REMARK   27  A    between atoms: C_57  and  C_58 
REMARK   28  A    between atoms: C_58  and  O_60 
ROOT
ATOM      1  O   UNK d   0      13.873 -13.435  -2.511  0.00  0.00    -0.650 OA
ATOM      2  C   UNK d   0      13.698 -14.100  -3.556  0.00  0.00     0.139 C 
ENDROOT
BRANCH   2   3
ATOM      3  O   UNK d   0      14.367 -13.743  -4.702  0.00  0.00    -0.776 OA
ATOM      4  H   UNK d   0      15.163 -14.288  -5.039  0.00  0.00     0.167 HD
ENDBRANCH   2   3
BRANCH   2   5
ATOM      5  C   UNK d   0      12.770 -15.267  -3.553  0.00  0.00     0.115 C 
BRANCH   5   6
ATOM      6  C   UNK d   0      11.363 -14.809  -3.279  0.00  0.00     0.052 C 
BRANCH   6   7
ATOM      7  C   UNK d   0      10.547 -14.656  -4.540  0.00  0.00    -0.020 A 
ATOM      8  C   UNK d   0      10.468 -13.606  -5.317  0.00  0.00    -0.011 A 
ATOM      9  C   UNK d   0       9.554 -13.923  -6.402  0.00  0.00     0.067 A 
ATOM     10  C   UNK d   0       9.068 -13.263  -7.542  0.00  0.00     0.062 C 
ATOM     11  N   UNK d   0       9.118 -15.184  -6.203  0.00  0.00    -0.248 NA
ATOM     12  C   UNK d   0       8.401 -13.834  -8.631  0.00  0.00     0.041 A 
ATOM     13  N   UNK d   0       7.428 -14.764  -8.686  0.00  0.00    -0.355 N 
ATOM     14  C   UNK d   0       8.787 -13.470  -9.933  0.00  0.00    -0.022 A 
ATOM     15  C   UNK d   0       7.193 -15.004  -9.990  0.00  0.00     0.042 A 
ATOM     16  H   UNK d   0       6.904 -15.227  -7.821  0.00  0.00     0.166 HD
ATOM     17  C   UNK d   0       6.280 -15.882 -10.607  0.00  0.00     0.062 C 
ATOM     18  C   UNK d   0       8.027 -14.212 -10.803  0.00  0.00    -0.013 A 
ATOM     19  C   UNK d   0       5.994 -17.187 -10.297  0.00  0.00     0.067 A 
ATOM     20  N   UNK d   0       6.483 -17.656  -9.145  0.00  0.00    -0.248 NA
ATOM     21  C   UNK d   0       5.268 -18.276 -10.928  0.00  0.00    -0.011 A 
ATOM     22  C   UNK d   0       6.129 -18.973  -8.979  0.00  0.00     0.066 A 
ATOM     23  C   UNK d   0       6.542 -19.577  -7.800  0.00  0.00     0.062 C 
ATOM     24  C   UNK d   0       5.354 -19.319 -10.154  0.00  0.00    -0.020 A 
ATOM     25  C   UNK d   0       7.200 -18.982  -6.713  0.00  0.00     0.041 A 
ATOM     26  N   UNK d   0       8.177 -18.069  -6.658  0.00  0.00    -0.355 N 
ATOM     27  C   UNK d   0       6.808 -19.346  -5.406  0.00  0.00    -0.022 A 
ATOM     28  C   UNK d   0       8.419 -17.834  -5.358  0.00  0.00     0.042 A 
ATOM     29  H   UNK d   0       8.709 -17.613  -7.528  0.00  0.00     0.166 HD
ATOM     30  C   UNK d   0       9.330 -16.971  -4.731  0.00  0.00     0.062 C 
ATOM     31  C   UNK d   0       7.574 -18.624  -4.543  0.00  0.00    -0.013 A 
ATOM     32  C   UNK d   0       9.679 -15.681  -5.099  0.00  0.00     0.066 A 
BRANCH   8  33
ATOM     33  C   UNK d   0      11.167 -12.320  -5.141  0.00  0.00     0.151 C 
BRANCH  33  34
ATOM     34  C   UNK d   0      10.741 -11.600  -3.927  0.00  0.00     0.143 C 
ATOM     35  O   UNK d   0      11.567 -11.021  -3.207  0.00  0.00    -0.650 OA
BRANCH  34  36
ATOM     36  O   UNK d   0       9.407 -11.574  -3.590  0.00  0.00    -0.776 OA
ATOM     37  H   UNK d   0       9.105 -11.549  -2.607  0.00  0.00     0.167 HD
ENDBRANCH  34  36
ENDBRANCH  33  34
ENDBRANCH   8  33
BRANCH  31  38
ATOM     38  C   UNK d   0       7.500 -18.669  -3.034  0.00  0.00     0.151 C 
BRANCH  38  39
ATOM     39  C   UNK d   0       8.781 -18.940  -2.418  0.00  0.00     0.143 C 
ATOM     40  O   UNK d   0       9.543 -19.832  -2.831  0.00  0.00    -0.650 OA
BRANCH  39  41
ATOM     41  O   UNK d   0       9.189 -18.182  -1.321  0.00  0.00    -0.776 OA
ATOM     42  H   UNK d   0      10.195 -18.008  -1.228  0.00  0.00     0.167 HD
ENDBRANCH  39  41
ENDBRANCH  38  39
ENDBRANCH  31  38
BRANCH  27  43
ATOM     43  C   UNK d   0       5.759 -20.333  -4.960  0.00  0.00     0.052 C 
BRANCH  43  44
ATOM     44  C   UNK d   0       4.683 -19.715  -4.126  0.00  0.00     0.115 C 
BRANCH  44  45
ATOM     45  C   UNK d   0       3.534 -19.462  -5.035  0.00  0.00     0.139 C 
ATOM     46  O   UNK d   0       3.688 -18.633  -5.965  0.00  0.00    -0.650 OA
BRANCH  45  47
ATOM     47  O   UNK d   0       2.321 -20.101  -4.901  0.00  0.00    -0.776 OA
ATOM     48  H   UNK d   0       2.129 -21.030  -5.309  0.00  0.00     0.167 HD
ENDBRANCH  45  47
ENDBRANCH  44  45
ENDBRANCH  43  44
ENDBRANCH  27  43
BRANCH  24  49
ATOM     49  C   UNK d   0       4.729 -20.632 -10.392  0.00  0.00     0.052 C 
BRANCH  49  50
ATOM     50  C   UNK d   0       3.348 -20.672  -9.788  0.00  0.00     0.115 C 
BRANCH  50  51
ATOM     51  C   UNK d   0       3.224 -21.231  -8.449  0.00  0.00     0.139 C 
ATOM     52  O   UNK d   0       2.231 -21.014  -7.715  0.00  0.00    -0.650 OA
BRANCH  51  53
ATOM     53  O   UNK d   0       4.234 -22.035  -7.944  0.00  0.00    -0.776 OA
ATOM     54  H   UNK d   0       4.095 -23.030  -7.947  0.00  0.00     0.167 HD
ENDBRANCH  51  53
ENDBRANCH  50  51
ENDBRANCH  49  50
ENDBRANCH  24  49
BRANCH  21  55
ATOM     55  C   UNK d   0       4.559 -18.160 -12.237  0.00  0.00     0.151 C 
BRANCH  55  56
ATOM     56  C   UNK d   0       5.311 -18.795 -13.330  0.00  0.00     0.143 C 
ATOM     57  O   UNK d   0       6.285 -18.249 -13.885  0.00  0.00    -0.650 OA
BRANCH  56  58
ATOM     58  O   UNK d   0       4.903 -20.060 -13.748  0.00  0.00    -0.776 OA
ATOM     59  H   UNK d   0       4.213 -20.062 -14.521  0.00  0.00     0.167 HD
ENDBRANCH  56  58
ENDBRANCH  55  56
ENDBRANCH  21  55
BRANCH  18  60
ATOM     60  C   UNK d   0       8.120 -14.144 -12.307  0.00  0.00     0.151 C 
BRANCH  60  61
ATOM     61  C   UNK d   0       6.734 -14.183 -12.799  0.00  0.00     0.143 C 
ATOM     62  O   UNK d   0       5.844 -13.361 -12.578  0.00  0.00    -0.650 OA
BRANCH  61  63
ATOM     63  O   UNK d   0       6.416 -15.297 -13.613  0.00  0.00    -0.776 OA
ATOM     64  H   UNK d   0       5.512 -15.734 -13.563  0.00  0.00     0.167 HD
ENDBRANCH  61  63
ENDBRANCH  60  61
ENDBRANCH  18  60
BRANCH  14  65
ATOM     65  C   UNK d   0       9.741 -12.413 -10.414  0.00  0.00     0.052 C 
BRANCH  65  66
ATOM     66  C   UNK d   0       9.698 -11.174  -9.591  0.00  0.00     0.115 C 
BRANCH  66  67
ATOM     67  C   UNK d   0      10.873 -10.356  -9.476  0.00  0.00     0.139 C 
ATOM     68  O   UNK d   0      11.766 -10.683  -8.611  0.00  0.00    -0.650 OA
BRANCH  67  69
ATOM     69  O   UNK d   0      11.188  -9.208 -10.203  0.00  0.00    -0.776 OA
ATOM     70  H   UNK d   0      11.953  -9.307 -10.887  0.00  0.00     0.167 HD
ENDBRANCH  67  69
ENDBRANCH  66  67
ENDBRANCH  65  66
ENDBRANCH  14  65
ENDBRANCH   6   7
ENDBRANCH   5   6
ENDBRANCH   2   5
TORSDOF 28
ENDMDL
MODEL 15
REMARK VINA RESULT:      -7.7     33.500     35.977
REMARK  28 active torsions:
REMARK  status: ('A' for Active; 'I' for Inactive)
REMARK    1  A    between atoms: C_2  and  O_3 
REMARK    2  A    between atoms: C_2  and  C_4 
REMARK    3  A    between atoms: C_4  and  C_5 
REMARK    4  A    between atoms: C_5  and  C_6 
REMARK    5  A    between atoms: C_7  and  C_8 
REMARK    6  A    between atoms: C_8  and  C_9 
REMARK    7  A    between atoms: C_9  and  O_11 
REMARK    8  A    between atoms: C_28  and  C_29 
REMARK    9  A    between atoms: C_29  and  C_30 
REMARK   10  A    between atoms: C_30  and  O_32 
REMARK   11  A    between atoms: C_33  and  C_34 
REMARK   12  A    between atoms: C_34  and  C_35 
REMARK   13  A    between atoms: C_35  and  C_36 
REMARK   14  A    between atoms: C_36  and  O_38 
REMARK   15  A    between atoms: C_39  and  C_40 
REMARK   16  A    between atoms: C_40  and  C_41 
REMARK   17  A    between atoms: C_41  and  C_42 
REMARK   18  A    between atoms: C_42  and  O_44 
REMARK   19  A    between atoms: C_45  and  C_46 
REMARK   20  A    between atoms: C_46  and  C_47 
REMARK   21  A    between atoms: C_47  and  O_49 
REMARK   22  A    between atoms: C_50  and  C_51 
REMARK   23  A    between atoms: C_51  and  C_52 
REMARK   24  A    between atoms: C_52  and  O_54 
REMARK   25  A    between atoms: C_55  and  C_56 
REMARK   26  A    between atoms: C_56  and  C_57 
REMARK   27  A    between atoms: C_57  and  C_58 
REMARK   28  A    between atoms: C_58  and  O_60 
ROOT
ATOM      1  O   UNK d   0     -18.465  -3.633   6.868  0.00  0.00    -0.650 OA
ATOM      2  C   UNK d   0     -17.845  -2.649   6.408  0.00  0.00     0.139 C 
ENDROOT
BRANCH   2   3
ATOM      3  O   UNK d   0     -17.521  -1.606   7.242  0.00  0.00    -0.776 OA
ATOM      4  H   UNK d   0     -18.248  -1.060   7.709  0.00  0.00     0.167 HD
ENDBRANCH   2   3
BRANCH   2   5
ATOM      5  C   UNK d   0     -17.463  -2.613   4.967  0.00  0.00     0.115 C 
BRANCH   5   6
ATOM      6  C   UNK d   0     -17.467  -4.004   4.395  0.00  0.00     0.052 C 
BRANCH   6   7
ATOM      7  C   UNK d   0     -18.353  -4.130   3.179  0.00  0.00    -0.020 A 
ATOM      8  C   UNK d   0     -18.029  -4.598   2.001  0.00  0.00    -0.011 A 
ATOM      9  C   UNK d   0     -19.204  -4.513   1.150  0.00  0.00     0.067 A 
ATOM     10  C   UNK d   0     -19.523  -4.856  -0.173  0.00  0.00     0.062 C 
ATOM     11  N   UNK d   0     -20.197  -3.978   1.890  0.00  0.00    -0.248 NA
ATOM     12  C   UNK d   0     -20.799  -4.957  -0.739  0.00  0.00     0.041 A 
ATOM     13  N   UNK d   0     -21.884  -4.168  -0.623  0.00  0.00    -0.355 N 
ATOM     14  C   UNK d   0     -21.103  -6.074  -1.538  0.00  0.00    -0.022 A 
ATOM     15  C   UNK d   0     -22.871  -4.760  -1.322  0.00  0.00     0.042 A 
ATOM     16  H   UNK d   0     -21.945  -3.202  -0.075  0.00  0.00     0.166 HD
ATOM     17  C   UNK d   0     -24.206  -4.362  -1.533  0.00  0.00     0.062 C 
ATOM     18  C   UNK d   0     -22.420  -5.958  -1.909  0.00  0.00    -0.013 A 
ATOM     19  C   UNK d   0     -25.114  -3.875  -0.627  0.00  0.00     0.067 A 
ATOM     20  N   UNK d   0     -24.646  -3.537   0.577  0.00  0.00    -0.248 NA
ATOM     21  C   UNK d   0     -26.545  -3.621  -0.616  0.00  0.00    -0.011 A 
ATOM     22  C   UNK d   0     -25.667  -3.083   1.375  0.00  0.00     0.066 A 
ATOM     23  C   UNK d   0     -25.313  -2.661   2.648  0.00  0.00     0.062 C 
ATOM     24  C   UNK d   0     -26.863  -3.162   0.560  0.00  0.00    -0.020 A 
ATOM     25  C   UNK d   0     -24.024  -2.556   3.193  0.00  0.00     0.041 A 
ATOM     26  N   UNK d   0     -22.950  -3.348   3.090  0.00  0.00    -0.355 N 
ATOM     27  C   UNK d   0     -23.718  -1.432   3.991  0.00  0.00    -0.022 A 
ATOM     28  C   UNK d   0     -21.966  -2.764   3.793  0.00  0.00     0.042 A 
ATOM     29  H   UNK d   0     -22.893  -4.323   2.548  0.00  0.00     0.166 HD
ATOM     30  C   UNK d   0     -20.637  -3.154   4.019  0.00  0.00     0.062 C 
ATOM     31  C   UNK d   0     -22.418  -1.555   4.374  0.00  0.00    -0.013 A 
ATOM     32  C   UNK d   0     -19.749  -3.725   3.121  0.00  0.00     0.066 A 
BRANCH   8  33
ATOM     33  C   UNK d   0     -16.712  -5.116   1.586  0.00  0.00     0.151 C 
BRANCH  33  34
ATOM     34  C   UNK d   0     -15.967  -4.169   0.737  0.00  0.00     0.143 C 
ATOM     35  O   UNK d   0     -15.916  -4.320  -0.492  0.00  0.00    -0.650 OA
BRANCH  34  36
ATOM     36  O   UNK d   0     -15.321  -3.104   1.320  0.00  0.00    -0.776 OA
ATOM     37  H   UNK d   0     -14.618  -2.557   0.803  0.00  0.00     0.167 HD
ENDBRANCH  34  36
ENDBRANCH  33  34
ENDBRANCH   8  33
BRANCH  31  38
ATOM     38  C   UNK d   0     -21.645  -0.579   5.230  0.00  0.00     0.151 C 
BRANCH  38  39
ATOM     39  C   UNK d   0     -21.525  -1.011   6.606  0.00  0.00     0.143 C 
ATOM     40  O   UNK d   0     -22.372  -1.741   7.150  0.00  0.00    -0.650 OA
BRANCH  39  41
ATOM     41  O   UNK d   0     -20.426  -0.602   7.360  0.00  0.00    -0.776 OA
ATOM     42  H   UNK d   0     -19.748  -1.327   7.619  0.00  0.00     0.167 HD
ENDBRANCH  39  41
ENDBRANCH  38  39
ENDBRANCH  31  38
BRANCH  27  43
ATOM     43  C   UNK d   0     -24.597  -0.275   4.393  0.00  0.00     0.052 C 
BRANCH  43  44
ATOM     44  C   UNK d   0     -24.221   1.011   3.732  0.00  0.00     0.115 C 
BRANCH  44  45
ATOM     45  C   UNK d   0     -25.088   1.141   2.532  0.00  0.00     0.139 C 
ATOM     46  O   UNK d   0     -26.332   1.066   2.690  0.00  0.00    -0.650 OA
BRANCH  45  47
ATOM     47  O   UNK d   0     -24.585   1.343   1.265  0.00  0.00    -0.776 OA
ATOM     48  H   UNK d   0     -25.136   1.167   0.409  0.00  0.00     0.167 HD
ENDBRANCH  45  47
ENDBRANCH  44  45
ENDBRANCH  43  44
ENDBRANCH  27  43
BRANCH  24  49
ATOM     49  C   UNK d   0     -28.206  -2.738   0.993  0.00  0.00     0.052 C 
BRANCH  49  50
ATOM     50  C   UNK d   0     -28.245  -1.245   1.195  0.00  0.00     0.115 C 
BRANCH  50  51
ATOM     51  C   UNK d   0     -28.033  -0.410   0.021  0.00  0.00     0.139 C 
ATOM     52  O   UNK d   0     -28.961  -0.096  -0.762  0.00  0.00    -0.650 OA
BRANCH  51  53
ATOM     53  O   UNK d   0     -26.762   0.067  -0.262  0.00  0.00    -0.776 OA
ATOM     54  H   UNK d   0     -26.674   0.828  -0.912  0.00  0.00     0.167 HD
ENDBRANCH  51  53
ENDBRANCH  50  51
ENDBRANCH  49  50
ENDBRANCH  24  49
BRANCH  21  55
ATOM     55  C   UNK d   0     -27.445  -3.860  -1.783  0.00  0.00     0.151 C 
BRANCH  55  56
ATOM     56  C   UNK d   0     -27.774  -5.285  -1.943  0.00  0.00     0.143 C 
ATOM     57  O   UNK d   0     -27.629  -6.118  -1.027  0.00  0.00    -0.650 OA
BRANCH  56  58
ATOM     58  O   UNK d   0     -28.268  -5.702  -3.178  0.00  0.00    -0.776 OA
ATOM     59  H   UNK d   0     -27.805  -6.542  -3.572  0.00  0.00     0.167 HD
ENDBRANCH  56  58
ENDBRANCH  55  56
ENDBRANCH  21  55
BRANCH  18  60
ATOM     60  C   UNK d   0     -23.166  -6.948  -2.768  0.00  0.00     0.151 C 
BRANCH  60  61
ATOM     61  C   UNK d   0     -23.821  -7.878  -1.836  0.00  0.00     0.143 C 
ATOM     62  O   UNK d   0     -23.280  -8.748  -1.153  0.00  0.00    -0.650 OA
BRANCH  61  63
ATOM     63  O   UNK d   0     -25.226  -7.737  -1.730  0.00  0.00    -0.776 OA
ATOM     64  H   UNK d   0     -25.833  -8.020  -2.479  0.00  0.00     0.167 HD
ENDBRANCH  61  63
ENDBRANCH  60  61
ENDBRANCH  18  60
BRANCH  14  65
ATOM     65  C   UNK d   0     -20.226  -7.180  -2.052  0.00  0.00     0.052 C 
BRANCH  65  66
ATOM     66  C   UNK d   0     -19.575  -6.851  -3.348  0.00  0.00     0.115 C 
BRANCH  66  67
ATOM     67  C   UNK d   0     -18.147  -6.719  -3.414  0.00  0.00     0.139 C 
ATOM     68  O   UNK d   0     -17.516  -7.337  -4.349  0.00  0.00    -0.650 OA
BRANCH  67  69
ATOM     69  O   UNK d   0     -17.319  -5.982  -2.569  0.00  0.00    -0.776 OA
ATOM     70  H   UNK d   0     -17.091  -5.028  -2.884  0.00  0.00     0.167 HD
ENDBRANCH  67  69
ENDBRANCH  66  67
ENDBRANCH  65  66
ENDBRANCH  14  65
ENDBRANCH   6   7
ENDBRANCH   5   6
ENDBRANCH   2   5
TORSDOF 28
ENDMDL
MODEL 16
REMARK VINA RESULT:      -7.4     22.063     23.901
REMARK  28 active torsions:
REMARK  status: ('A' for Active; 'I' for Inactive)
REMARK    1  A    between atoms: C_2  and  O_3 
REMARK    2  A    between atoms: C_2  and  C_4 
REMARK    3  A    between atoms: C_4  and  C_5 
REMARK    4  A    between atoms: C_5  and  C_6 
REMARK    5  A    between atoms: C_7  and  C_8 
REMARK    6  A    between atoms: C_8  and  C_9 
REMARK    7  A    between atoms: C_9  and  O_11 
REMARK    8  A    between atoms: C_28  and  C_29 
REMARK    9  A    between atoms: C_29  and  C_30 
REMARK   10  A    between atoms: C_30  and  O_32 
REMARK   11  A    between atoms: C_33  and  C_34 
REMARK   12  A    between atoms: C_34  and  C_35 
REMARK   13  A    between atoms: C_35  and  C_36 
REMARK   14  A    between atoms: C_36  and  O_38 
REMARK   15  A    between atoms: C_39  and  C_40 
REMARK   16  A    between atoms: C_40  and  C_41 
REMARK   17  A    between atoms: C_41  and  C_42 
REMARK   18  A    between atoms: C_42  and  O_44 
REMARK   19  A    between atoms: C_45  and  C_46 
REMARK   20  A    between atoms: C_46  and  C_47 
REMARK   21  A    between atoms: C_47  and  O_49 
REMARK   22  A    between atoms: C_50  and  C_51 
REMARK   23  A    between atoms: C_51  and  C_52 
REMARK   24  A    between atoms: C_52  and  O_54 
REMARK   25  A    between atoms: C_55  and  C_56 
REMARK   26  A    between atoms: C_56  and  C_57 
REMARK   27  A    between atoms: C_57  and  C_58 
REMARK   28  A    between atoms: C_58  and  O_60 
ROOT
ATOM      1  O   UNK d   0     -16.972  -4.860  -4.242  0.00  0.00    -0.650 OA
ATOM      2  C   UNK d   0     -15.873  -5.332  -4.609  0.00  0.00     0.139 C 
ENDROOT
BRANCH   2   3
ATOM      3  O   UNK d   0     -15.588  -5.411  -5.951  0.00  0.00    -0.776 OA
ATOM      4  H   UNK d   0     -14.679  -5.120  -6.315  0.00  0.00     0.167 HD
ENDBRANCH   2   3
BRANCH   2   5
ATOM      5  C   UNK d   0     -14.886  -5.805  -3.597  0.00  0.00     0.115 C 
BRANCH   5   6
ATOM      6  C   UNK d   0     -13.715  -4.863  -3.536  0.00  0.00     0.052 C 
BRANCH   6   7
ATOM      7  C   UNK d   0     -13.288  -4.558  -2.120  0.00  0.00    -0.020 A 
ATOM      8  C   UNK d   0     -14.023  -4.078  -1.150  0.00  0.00    -0.011 A 
ATOM      9  C   UNK d   0     -13.178  -3.944   0.025  0.00  0.00     0.067 A 
ATOM     10  C   UNK d   0     -13.349  -3.525   1.353  0.00  0.00     0.062 C 
ATOM     11  N   UNK d   0     -11.941  -4.360  -0.322  0.00  0.00    -0.248 NA
ATOM     12  C   UNK d   0     -12.474  -3.730   2.426  0.00  0.00     0.041 A 
ATOM     13  N   UNK d   0     -11.134  -3.628   2.509  0.00  0.00    -0.355 N 
ATOM     14  C   UNK d   0     -12.997  -4.172   3.655  0.00  0.00    -0.022 A 
ATOM     15  C   UNK d   0     -10.792  -4.002   3.756  0.00  0.00     0.042 A 
ATOM     16  H   UNK d   0     -10.446  -3.280   1.707  0.00  0.00     0.166 HD
ATOM     17  C   UNK d   0      -9.527  -4.079   4.372  0.00  0.00     0.062 C 
ATOM     18  C   UNK d   0     -11.933  -4.350   4.505  0.00  0.00    -0.013 A 
ATOM     19  C   UNK d   0      -8.357  -4.596   3.877  0.00  0.00     0.067 A 
ATOM     20  N   UNK d   0      -8.331  -4.895   2.575  0.00  0.00    -0.248 NA
ATOM     21  C   UNK d   0      -7.055  -4.944   4.421  0.00  0.00    -0.011 A 
ATOM     22  C   UNK d   0      -7.107  -5.414   2.230  0.00  0.00     0.066 A 
ATOM     23  C   UNK d   0      -6.929  -5.734   0.892  0.00  0.00     0.062 C 
ATOM     24  C   UNK d   0      -6.330  -5.426   3.454  0.00  0.00    -0.020 A 
ATOM     25  C   UNK d   0      -7.816  -5.509  -0.172  0.00  0.00     0.041 A 
ATOM     26  N   UNK d   0      -9.146  -5.624  -0.259  0.00  0.00    -0.355 N 
ATOM     27  C   UNK d   0      -7.291  -5.061  -1.404  0.00  0.00    -0.022 A 
ATOM     28  C   UNK d   0      -9.489  -5.261  -1.505  0.00  0.00     0.042 A 
ATOM     29  H   UNK d   0      -9.836  -5.984   0.544  0.00  0.00     0.166 HD
ATOM     30  C   UNK d   0     -10.742  -5.188  -2.133  0.00  0.00     0.062 C 
ATOM     31  C   UNK d   0      -8.343  -4.901  -2.253  0.00  0.00    -0.013 A 
ATOM     32  C   UNK d   0     -11.941  -4.743  -1.600  0.00  0.00     0.066 A 
BRANCH   8  33
ATOM     33  C   UNK d   0     -15.453  -3.724  -1.215  0.00  0.00     0.151 C 
BRANCH  33  34
ATOM     34  C   UNK d   0     -15.679  -2.351  -1.703  0.00  0.00     0.143 C 
ATOM     35  O   UNK d   0     -15.537  -1.377  -0.950  0.00  0.00    -0.650 OA
BRANCH  34  36
ATOM     36  O   UNK d   0     -16.054  -2.152  -3.011  0.00  0.00    -0.776 OA
ATOM     37  H   UNK d   0     -16.429  -2.921  -3.582  0.00  0.00     0.167 HD
ENDBRANCH  34  36
ENDBRANCH  33  34
ENDBRANCH   8  33
BRANCH  31  38
ATOM     38  C   UNK d   0      -8.269  -4.423  -3.684  0.00  0.00     0.151 C 
BRANCH  38  39
ATOM     39  C   UNK d   0      -7.818  -5.451  -4.597  0.00  0.00     0.143 C 
ATOM     40  O   UNK d   0      -6.982  -5.227  -5.491  0.00  0.00    -0.650 OA
BRANCH  39  41
ATOM     41  O   UNK d   0      -8.329  -6.743  -4.482  0.00  0.00    -0.776 OA
ATOM     42  H   UNK d   0      -9.003  -6.907  -3.728  0.00  0.00     0.167 HD
ENDBRANCH  39  41
ENDBRANCH  38  39
ENDBRANCH  31  38
BRANCH  27  43
ATOM     43  C   UNK d   0      -5.860  -4.789  -1.794  0.00  0.00     0.052 C 
BRANCH  43  44
ATOM     44  C   UNK d   0      -5.052  -6.032  -1.982  0.00  0.00     0.115 C 
BRANCH  44  45
ATOM     45  C   UNK d   0      -4.031  -5.723  -3.017  0.00  0.00     0.139 C 
ATOM     46  O   UNK d   0      -2.845  -5.549  -2.645  0.00  0.00    -0.650 OA
BRANCH  45  47
ATOM     47  O   UNK d   0      -4.333  -5.627  -4.359  0.00  0.00    -0.776 OA
ATOM     48  H   UNK d   0      -5.291  -5.463  -4.707  0.00  0.00     0.167 HD
ENDBRANCH  45  47
ENDBRANCH  44  45
ENDBRANCH  43  44
ENDBRANCH  27  43
BRANCH  24  49
ATOM     49  C   UNK d   0      -4.929  -5.869   3.556  0.00  0.00     0.052 C 
BRANCH  49  50
ATOM     50  C   UNK d   0      -4.011  -4.855   2.922  0.00  0.00     0.115 C 
BRANCH  50  51
ATOM     51  C   UNK d   0      -3.546  -3.761   3.764  0.00  0.00     0.139 C 
ATOM     52  O   UNK d   0      -2.671  -3.914   4.649  0.00  0.00    -0.650 OA
BRANCH  51  53
ATOM     53  O   UNK d   0      -4.081  -2.493   3.599  0.00  0.00    -0.776 OA
ATOM     54  H   UNK d   0      -4.732  -2.346   2.848  0.00  0.00     0.167 HD
ENDBRANCH  51  53
ENDBRANCH  50  51
ENDBRANCH  49  50
ENDBRANCH  24  49
BRANCH  21  55
ATOM     55  C   UNK d   0      -6.671  -4.755   5.851  0.00  0.00     0.151 C 
BRANCH  55  56
ATOM     56  C   UNK d   0      -7.120  -5.872   6.696  0.00  0.00     0.143 C 
ATOM     57  O   UNK d   0      -6.422  -6.883   6.905  0.00  0.00    -0.650 OA
BRANCH  56  58
ATOM     58  O   UNK d   0      -8.383  -5.778   7.279  0.00  0.00    -0.776 OA
ATOM     59  H   UNK d   0      -9.032  -6.549   7.039  0.00  0.00     0.167 HD
ENDBRANCH  56  58
ENDBRANCH  55  56
ENDBRANCH  21  55
BRANCH  18  60
ATOM     60  C   UNK d   0     -12.037  -4.827   5.932  0.00  0.00     0.151 C 
BRANCH  60  61
ATOM     61  C   UNK d   0     -11.994  -6.296   5.871  0.00  0.00     0.143 C 
ATOM     62  O   UNK d   0     -12.954  -7.064   5.803  0.00  0.00    -0.650 OA
BRANCH  61  63
ATOM     63  O   UNK d   0     -10.697  -6.862   5.896  0.00  0.00    -0.776 OA
ATOM     64  H   UNK d   0      -9.911  -6.375   5.502  0.00  0.00     0.167 HD
ENDBRANCH  61  63
ENDBRANCH  60  61
ENDBRANCH  18  60
BRANCH  14  65
ATOM     65  C   UNK d   0     -14.417  -4.341   4.113  0.00  0.00     0.052 C 
BRANCH  65  66
ATOM     66  C   UNK d   0     -15.087  -3.050   4.422  0.00  0.00     0.115 C 
BRANCH  66  67
ATOM     67  C   UNK d   0     -16.521  -2.984   4.465  0.00  0.00     0.139 C 
ATOM     68  O   UNK d   0     -17.082  -2.503   5.517  0.00  0.00    -0.650 OA
BRANCH  67  69
ATOM     69  O   UNK d   0     -17.424  -3.388   3.481  0.00  0.00    -0.776 OA
ATOM     70  H   UNK d   0     -18.401  -3.093   3.621  0.00  0.00     0.167 HD
ENDBRANCH  67  69
ENDBRANCH  66  67
ENDBRANCH  65  66
ENDBRANCH  14  65
ENDBRANCH   6   7
ENDBRANCH   5   6
ENDBRANCH   2   5
TORSDOF 28
ENDMDL
MODEL 17
REMARK VINA RESULT:      -7.4      3.208      9.483
REMARK  28 active torsions:
REMARK  status: ('A' for Active; 'I' for Inactive)
REMARK    1  A    between atoms: C_2  and  O_3 
REMARK    2  A    between atoms: C_2  and  C_4 
REMARK    3  A    between atoms: C_4  and  C_5 
REMARK    4  A    between atoms: C_5  and  C_6 
REMARK    5  A    between atoms: C_7  and  C_8 
REMARK    6  A    between atoms: C_8  and  C_9 
REMARK    7  A    between atoms: C_9  and  O_11 
REMARK    8  A    between atoms: C_28  and  C_29 
REMARK    9  A    between atoms: C_29  and  C_30 
REMARK   10  A    between atoms: C_30  and  O_32 
REMARK   11  A    between atoms: C_33  and  C_34 
REMARK   12  A    between atoms: C_34  and  C_35 
REMARK   13  A    between atoms: C_35  and  C_36 
REMARK   14  A    between atoms: C_36  and  O_38 
REMARK   15  A    between atoms: C_39  and  C_40 
REMARK   16  A    between atoms: C_40  and  C_41 
REMARK   17  A    between atoms: C_41  and  C_42 
REMARK   18  A    between atoms: C_42  and  O_44 
REMARK   19  A    between atoms: C_45  and  C_46 
REMARK   20  A    between atoms: C_46  and  C_47 
REMARK   21  A    between atoms: C_47  and  O_49 
REMARK   22  A    between atoms: C_50  and  C_51 
REMARK   23  A    between atoms: C_51  and  C_52 
REMARK   24  A    between atoms: C_52  and  O_54 
REMARK   25  A    between atoms: C_55  and  C_56 
REMARK   26  A    between atoms: C_56  and  C_57 
REMARK   27  A    between atoms: C_57  and  C_58 
REMARK   28  A    between atoms: C_58  and  O_60 
ROOT
ATOM      1  O   UNK d   0      11.389 -13.838  -0.587  0.00  0.00    -0.650 OA
ATOM      2  C   UNK d   0      10.580 -14.717  -0.958  0.00  0.00     0.139 C 
ENDROOT
BRANCH   2   3
ATOM      3  O   UNK d   0       9.234 -14.440  -0.948  0.00  0.00    -0.776 OA
ATOM      4  H   UNK d   0       8.800 -13.955  -0.159  0.00  0.00     0.167 HD
ENDBRANCH   2   3
BRANCH   2   5
ATOM      5  C   UNK d   0      11.075 -16.050  -1.404  0.00  0.00     0.115 C 
BRANCH   5   6
ATOM      6  C   UNK d   0      11.949 -15.897  -2.619  0.00  0.00     0.052 C 
BRANCH   6   7
ATOM      7  C   UNK d   0      11.212 -15.298  -3.793  0.00  0.00    -0.020 A 
ATOM      8  C   UNK d   0      11.339 -14.092  -4.285  0.00  0.00    -0.011 A 
ATOM      9  C   UNK d   0      10.421 -13.969  -5.404  0.00  0.00     0.067 A 
ATOM     10  C   UNK d   0      10.092 -12.975  -6.339  0.00  0.00     0.062 C 
ATOM     11  N   UNK d   0       9.769 -15.145  -5.519  0.00  0.00    -0.248 NA
ATOM     12  C   UNK d   0       9.373 -13.136  -7.529  0.00  0.00     0.041 A 
ATOM     13  N   UNK d   0       8.258 -13.840  -7.802  0.00  0.00    -0.355 N 
ATOM     14  C   UNK d   0       9.859 -12.534  -8.704  0.00  0.00    -0.022 A 
ATOM     15  C   UNK d   0       8.029 -13.707  -9.123  0.00  0.00     0.042 A 
ATOM     16  H   UNK d   0       7.635 -14.403  -7.074  0.00  0.00     0.166 HD
ATOM     17  C   UNK d   0       6.999 -14.234  -9.928  0.00  0.00     0.062 C 
ATOM     18  C   UNK d   0       9.012 -12.896  -9.722  0.00  0.00    -0.013 A 
ATOM     19  C   UNK d   0       6.485 -15.505  -9.948  0.00  0.00     0.067 A 
ATOM     20  N   UNK d   0       6.848 -16.320  -8.954  0.00  0.00    -0.248 NA
ATOM     21  C   UNK d   0       5.604 -16.262 -10.822  0.00  0.00    -0.011 A 
ATOM     22  C   UNK d   0       6.269 -17.555  -9.116  0.00  0.00     0.066 A 
ATOM     23  C   UNK d   0       6.533 -18.493  -8.129  0.00  0.00     0.062 C 
ATOM     24  C   UNK d   0       5.485 -17.462 -10.331  0.00  0.00    -0.020 A 
ATOM     25  C   UNK d   0       7.248 -18.308  -6.935  0.00  0.00     0.041 A 
ATOM     26  N   UNK d   0       8.364 -17.620  -6.666  0.00  0.00    -0.355 N 
ATOM     27  C   UNK d   0       6.757 -18.908  -5.755  0.00  0.00    -0.022 A 
ATOM     28  C   UNK d   0       8.600 -17.758  -5.351  0.00  0.00     0.042 A 
ATOM     29  H   UNK d   0       8.995 -17.063  -7.401  0.00  0.00     0.166 HD
ATOM     30  C   UNK d   0       9.625 -17.248  -4.539  0.00  0.00     0.062 C 
ATOM     31  C   UNK d   0       7.606 -18.565  -4.748  0.00  0.00    -0.013 A 
ATOM     32  C   UNK d   0      10.200 -15.988  -4.580  0.00  0.00     0.066 A 
BRANCH   8  33
ATOM     33  C   UNK d   0      12.242 -13.031  -3.802  0.00  0.00     0.151 C 
BRANCH  33  34
ATOM     34  C   UNK d   0      11.578 -11.719  -3.700  0.00  0.00     0.143 C 
ATOM     35  O   UNK d   0      10.634 -11.543  -2.917  0.00  0.00    -0.650 OA
BRANCH  34  36
ATOM     36  O   UNK d   0      12.012 -10.679  -4.489  0.00  0.00    -0.776 OA
ATOM     37  H   UNK d   0      13.014 -10.526  -4.667  0.00  0.00     0.167 HD
ENDBRANCH  34  36
ENDBRANCH  33  34
ENDBRANCH   8  33
BRANCH  31  38
ATOM     38  C   UNK d   0       7.477 -18.966  -3.297  0.00  0.00     0.151 C 
BRANCH  38  39
ATOM     39  C   UNK d   0       8.757 -19.185  -2.658  0.00  0.00     0.143 C 
ATOM     40  O   UNK d   0       9.672 -19.827  -3.204  0.00  0.00    -0.650 OA
BRANCH  39  41
ATOM     41  O   UNK d   0       8.988 -18.661  -1.387  0.00  0.00    -0.776 OA
ATOM     42  H   UNK d   0       9.943 -18.351  -1.181  0.00  0.00     0.167 HD
ENDBRANCH  39  41
ENDBRANCH  38  39
ENDBRANCH  31  38
BRANCH  27  43
ATOM     43  C   UNK d   0       5.540 -19.777  -5.556  0.00  0.00     0.052 C 
BRANCH  43  44
ATOM     44  C   UNK d   0       4.304 -18.999  -5.240  0.00  0.00     0.115 C 
BRANCH  44  45
ATOM     45  C   UNK d   0       3.674 -19.661  -4.067  0.00  0.00     0.139 C 
ATOM     46  O   UNK d   0       2.536 -19.269  -3.708  0.00  0.00    -0.650 OA
BRANCH  45  47
ATOM     47  O   UNK d   0       4.283 -20.681  -3.369  0.00  0.00    -0.776 OA
ATOM     48  H   UNK d   0       4.956 -20.513  -2.605  0.00  0.00     0.167 HD
ENDBRANCH  45  47
ENDBRANCH  44  45
ENDBRANCH  43  44
ENDBRANCH  27  43
BRANCH  24  49
ATOM     49  C   UNK d   0       4.653 -18.546 -10.881  0.00  0.00     0.052 C 
BRANCH  49  50
ATOM     50  C   UNK d   0       3.470 -18.805  -9.983  0.00  0.00     0.115 C 
BRANCH  50  51
ATOM     51  C   UNK d   0       2.328 -17.910 -10.113  0.00  0.00     0.139 C 
ATOM     52  O   UNK d   0       2.020 -17.361 -11.197  0.00  0.00    -0.650 OA
BRANCH  51  53
ATOM     53  O   UNK d   0       1.538 -17.640  -9.006  0.00  0.00    -0.776 OA
ATOM     54  H   UNK d   0       0.741 -17.040  -9.126  0.00  0.00     0.167 HD
ENDBRANCH  51  53
ENDBRANCH  50  51
ENDBRANCH  49  50
ENDBRANCH  24  49
BRANCH  21  55
ATOM     55  C   UNK d   0       4.969 -15.705 -12.053  0.00  0.00     0.151 C 
BRANCH  55  56
ATOM     56  C   UNK d   0       5.880 -15.739 -13.207  0.00  0.00     0.143 C 
ATOM     57  O   UNK d   0       6.451 -14.722 -13.646  0.00  0.00    -0.650 OA
BRANCH  56  58
ATOM     58  O   UNK d   0       6.101 -16.970 -13.823  0.00  0.00    -0.776 OA
ATOM     59  H   UNK d   0       6.381 -16.916 -14.819  0.00  0.00     0.167 HD
ENDBRANCH  56  58
ENDBRANCH  55  56
ENDBRANCH  21  55
BRANCH  18  60
ATOM     60  C   UNK d   0       9.164 -12.477 -11.163  0.00  0.00     0.151 C 
BRANCH  60  61
ATOM     61  C   UNK d   0       9.935 -13.546 -11.815  0.00  0.00     0.143 C 
ATOM     62  O   UNK d   0      11.159 -13.679 -11.823  0.00  0.00    -0.650 OA
BRANCH  61  63
ATOM     63  O   UNK d   0       9.162 -14.515 -12.500  0.00  0.00    -0.776 OA
ATOM     64  H   UNK d   0       9.487 -15.460 -12.602  0.00  0.00     0.167 HD
ENDBRANCH  61  63
ENDBRANCH  60  61
ENDBRANCH  18  60
BRANCH  14  65
ATOM     65  C   UNK d   0      10.994 -11.574  -8.918  0.00  0.00     0.052 C 
BRANCH  65  66
ATOM     66  C   UNK d   0      10.806 -10.282  -8.205  0.00  0.00     0.115 C 
BRANCH  66  67
ATOM     67  C   UNK d   0      11.457  -9.099  -8.692  0.00  0.00     0.139 C 
ATOM     68  O   UNK d   0      12.447  -8.624  -8.024  0.00  0.00    -0.650 OA
BRANCH  67  69
ATOM     69  O   UNK d   0      11.148  -8.365  -9.837  0.00  0.00    -0.776 OA
ATOM     70  H   UNK d   0      10.361  -8.721 -10.398  0.00  0.00     0.167 HD
ENDBRANCH  67  69
ENDBRANCH  66  67
ENDBRANCH  65  66
ENDBRANCH  14  65
ENDBRANCH   6   7
ENDBRANCH   5   6
ENDBRANCH   2   5
TORSDOF 28
ENDMDL
MODEL 18
REMARK VINA RESULT:      -7.3     21.851     23.616
REMARK  28 active torsions:
REMARK  status: ('A' for Active; 'I' for Inactive)
REMARK    1  A    between atoms: C_2  and  O_3 
REMARK    2  A    between atoms: C_2  and  C_4 
REMARK    3  A    between atoms: C_4  and  C_5 
REMARK    4  A    between atoms: C_5  and  C_6 
REMARK    5  A    between atoms: C_7  and  C_8 
REMARK    6  A    between atoms: C_8  and  C_9 
REMARK    7  A    between atoms: C_9  and  O_11 
REMARK    8  A    between atoms: C_28  and  C_29 
REMARK    9  A    between atoms: C_29  and  C_30 
REMARK   10  A    between atoms: C_30  and  O_32 
REMARK   11  A    between atoms: C_33  and  C_34 
REMARK   12  A    between atoms: C_34  and  C_35 
REMARK   13  A    between atoms: C_35  and  C_36 
REMARK   14  A    between atoms: C_36  and  O_38 
REMARK   15  A    between atoms: C_39  and  C_40 
REMARK   16  A    between atoms: C_40  and  C_41 
REMARK   17  A    between atoms: C_41  and  C_42 
REMARK   18  A    between atoms: C_42  and  O_44 
REMARK   19  A    between atoms: C_45  and  C_46 
REMARK   20  A    between atoms: C_46  and  C_47 
REMARK   21  A    between atoms: C_47  and  O_49 
REMARK   22  A    between atoms: C_50  and  C_51 
REMARK   23  A    between atoms: C_51  and  C_52 
REMARK   24  A    between atoms: C_52  and  O_54 
REMARK   25  A    between atoms: C_55  and  C_56 
REMARK   26  A    between atoms: C_56  and  C_57 
REMARK   27  A    between atoms: C_57  and  C_58 
REMARK   28  A    between atoms: C_58  and  O_60 
ROOT
ATOM      1  O   UNK d   0     -17.069  -4.279  -4.474  0.00  0.00    -0.650 OA
ATOM      2  C   UNK d   0     -15.978  -4.173  -5.079  0.00  0.00     0.139 C 
ENDROOT
BRANCH   2   3
ATOM      3  O   UNK d   0     -15.964  -4.201  -6.452  0.00  0.00    -0.776 OA
ATOM      4  H   UNK d   0     -15.724  -3.368  -6.994  0.00  0.00     0.167 HD
ENDBRANCH   2   3
BRANCH   2   5
ATOM      5  C   UNK d   0     -14.710  -4.020  -4.312  0.00  0.00     0.115 C 
BRANCH   5   6
ATOM      6  C   UNK d   0     -14.534  -5.176  -3.365  0.00  0.00     0.052 C 
BRANCH   6   7
ATOM      7  C   UNK d   0     -13.829  -4.781  -2.090  0.00  0.00    -0.020 A 
ATOM      8  C   UNK d   0     -14.358  -4.255  -1.015  0.00  0.00    -0.011 A 
ATOM      9  C   UNK d   0     -13.291  -4.040  -0.053  0.00  0.00     0.067 A 
ATOM     10  C   UNK d   0     -13.193  -3.544   1.257  0.00  0.00     0.062 C 
ATOM     11  N   UNK d   0     -12.143  -4.458  -0.627  0.00  0.00    -0.248 NA
ATOM     12  C   UNK d   0     -12.108  -3.672   2.132  0.00  0.00     0.041 A 
ATOM     13  N   UNK d   0     -10.783  -3.546   1.926  0.00  0.00    -0.355 N 
ATOM     14  C   UNK d   0     -12.351  -4.047   3.466  0.00  0.00    -0.022 A 
ATOM     15  C   UNK d   0     -10.179  -3.840   3.093  0.00  0.00     0.042 A 
ATOM     16  H   UNK d   0     -10.287  -3.237   0.980  0.00  0.00     0.166 HD
ATOM     17  C   UNK d   0      -8.812  -3.862   3.433  0.00  0.00     0.062 C 
ATOM     18  C   UNK d   0     -11.129  -4.159   4.082  0.00  0.00    -0.013 A 
ATOM     19  C   UNK d   0      -7.757  -4.391   2.733  0.00  0.00     0.067 A 
ATOM     20  N   UNK d   0      -7.995  -4.766   1.473  0.00  0.00    -0.248 NA
ATOM     21  C   UNK d   0      -6.362  -4.687   3.011  0.00  0.00    -0.011 A 
ATOM     22  C   UNK d   0      -6.857  -5.287   0.908  0.00  0.00     0.066 A 
ATOM     23  C   UNK d   0      -6.953  -5.684  -0.417  0.00  0.00     0.062 C 
ATOM     24  C   UNK d   0      -5.842  -5.215   1.941  0.00  0.00    -0.020 A 
ATOM     25  C   UNK d   0      -8.048  -5.536  -1.283  0.00  0.00     0.041 A 
ATOM     26  N   UNK d   0      -9.364  -5.675  -1.082  0.00  0.00    -0.355 N 
ATOM     27  C   UNK d   0      -7.804  -5.155  -2.620  0.00  0.00    -0.022 A 
ATOM     28  C   UNK d   0      -9.968  -5.392  -2.247  0.00  0.00     0.042 A 
ATOM     29  H   UNK d   0      -9.861  -5.996  -0.134  0.00  0.00     0.166 HD
ATOM     30  C   UNK d   0     -11.326  -5.374  -2.601  0.00  0.00     0.062 C 
ATOM     31  C   UNK d   0      -9.013  -5.060  -3.237  0.00  0.00    -0.013 A 
ATOM     32  C   UNK d   0     -12.399  -4.916  -1.854  0.00  0.00     0.066 A 
BRANCH   8  33
ATOM     33  C   UNK d   0     -15.779  -3.926  -0.799  0.00  0.00     0.151 C 
BRANCH  33  34
ATOM     34  C   UNK d   0     -16.136  -2.585  -1.294  0.00  0.00     0.143 C 
ATOM     35  O   UNK d   0     -15.560  -1.574  -0.867  0.00  0.00    -0.650 OA
BRANCH  34  36
ATOM     36  O   UNK d   0     -17.125  -2.456  -2.242  0.00  0.00    -0.776 OA
ATOM     37  H   UNK d   0     -17.502  -3.276  -2.736  0.00  0.00     0.167 HD
ENDBRANCH  34  36
ENDBRANCH  33  34
ENDBRANCH   8  33
BRANCH  31  38
ATOM     38  C   UNK d   0      -9.252  -4.667  -4.676  0.00  0.00     0.151 C 
BRANCH  38  39
ATOM     39  C   UNK d   0      -9.271  -5.803  -5.573  0.00  0.00     0.143 C 
ATOM     40  O   UNK d   0      -9.125  -6.971  -5.171  0.00  0.00    -0.650 OA
BRANCH  39  41
ATOM     41  O   UNK d   0      -9.459  -5.596  -6.939  0.00  0.00    -0.776 OA
ATOM     42  H   UNK d   0      -8.908  -6.180  -7.575  0.00  0.00     0.167 HD
ENDBRANCH  39  41
ENDBRANCH  38  39
ENDBRANCH  31  38
BRANCH  27  43
ATOM     43  C   UNK d   0      -6.493  -4.886  -3.316  0.00  0.00     0.052 C 
BRANCH  43  44
ATOM     44  C   UNK d   0      -5.886  -6.107  -3.926  0.00  0.00     0.115 C 
BRANCH  44  45
ATOM     45  C   UNK d   0      -4.533  -6.253  -3.328  0.00  0.00     0.139 C 
ATOM     46  O   UNK d   0      -3.909  -7.324  -3.530  0.00  0.00    -0.650 OA
BRANCH  45  47
ATOM     47  O   UNK d   0      -3.940  -5.265  -2.571  0.00  0.00    -0.776 OA
ATOM     48  H   UNK d   0      -2.916  -5.146  -2.509  0.00  0.00     0.167 HD
ENDBRANCH  45  47
ENDBRANCH  44  45
ENDBRANCH  43  44
ENDBRANCH  27  43
BRANCH  24  49
ATOM     49  C   UNK d   0      -4.439  -5.631   1.771  0.00  0.00     0.052 C 
BRANCH  49  50
ATOM     50  C   UNK d   0      -4.293  -7.106   2.040  0.00  0.00     0.115 C 
BRANCH  50  51
ATOM     51  C   UNK d   0      -3.582  -7.494   3.251  0.00  0.00     0.139 C 
ATOM     52  O   UNK d   0      -3.578  -8.670   3.685  0.00  0.00    -0.650 OA
BRANCH  51  53
ATOM     53  O   UNK d   0      -2.876  -6.540   3.968  0.00  0.00    -0.776 OA
ATOM     54  H   UNK d   0      -2.294  -5.898   3.460  0.00  0.00     0.167 HD
ENDBRANCH  51  53
ENDBRANCH  50  51
ENDBRANCH  49  50
ENDBRANCH  24  49
BRANCH  21  55
ATOM     55  C   UNK d   0      -5.693  -4.407   4.316  0.00  0.00     0.151 C 
BRANCH  55  56
ATOM     56  C   UNK d   0      -4.532  -3.518   4.160  0.00  0.00     0.143 C 
ATOM     57  O   UNK d   0      -3.443  -3.723   4.732  0.00  0.00    -0.650 OA
BRANCH  56  58
ATOM     58  O   UNK d   0      -4.673  -2.404   3.335  0.00  0.00    -0.776 OA
ATOM     59  H   UNK d   0      -5.594  -1.932   3.392  0.00  0.00     0.167 HD
ENDBRANCH  56  58
ENDBRANCH  55  56
ENDBRANCH  21  55
BRANCH  18  60
ATOM     60  C   UNK d   0     -10.921  -4.552   5.524  0.00  0.00     0.151 C 
BRANCH  60  61
ATOM     61  C   UNK d   0     -10.553  -5.975   5.505  0.00  0.00     0.143 C 
ATOM     62  O   UNK d   0     -11.162  -6.892   4.953  0.00  0.00    -0.650 OA
BRANCH  61  63
ATOM     63  O   UNK d   0      -9.366  -6.300   6.206  0.00  0.00    -0.776 OA
ATOM     64  H   UNK d   0      -8.586  -5.668   6.224  0.00  0.00     0.167 HD
ENDBRANCH  61  63
ENDBRANCH  60  61
ENDBRANCH  18  60
BRANCH  14  65
ATOM     65  C   UNK d   0     -13.640  -4.210   4.220  0.00  0.00     0.052 C 
BRANCH  65  66
ATOM     66  C   UNK d   0     -14.448  -2.962   4.268  0.00  0.00     0.115 C 
BRANCH  66  67
ATOM     67  C   UNK d   0     -15.858  -3.037   4.526  0.00  0.00     0.139 C 
ATOM     68  O   UNK d   0     -16.645  -3.339   3.554  0.00  0.00    -0.650 OA
BRANCH  67  69
ATOM     69  O   UNK d   0     -16.517  -2.816   5.735  0.00  0.00    -0.776 OA
ATOM     70  H   UNK d   0     -15.914  -2.738   6.566  0.00  0.00     0.167 HD
ENDBRANCH  67  69
ENDBRANCH  66  67
ENDBRANCH  65  66
ENDBRANCH  14  65
ENDBRANCH   6   7
ENDBRANCH   5   6
ENDBRANCH   2   5
TORSDOF 28
ENDMDL
MODEL 19
REMARK VINA RESULT:      -7.3     21.453     23.340
REMARK  28 active torsions:
REMARK  status: ('A' for Active; 'I' for Inactive)
REMARK    1  A    between atoms: C_2  and  O_3 
REMARK    2  A    between atoms: C_2  and  C_4 
REMARK    3  A    between atoms: C_4  and  C_5 
REMARK    4  A    between atoms: C_5  and  C_6 
REMARK    5  A    between atoms: C_7  and  C_8 
REMARK    6  A    between atoms: C_8  and  C_9 
REMARK    7  A    between atoms: C_9  and  O_11 
REMARK    8  A    between atoms: C_28  and  C_29 
REMARK    9  A    between atoms: C_29  and  C_30 
REMARK   10  A    between atoms: C_30  and  O_32 
REMARK   11  A    between atoms: C_33  and  C_34 
REMARK   12  A    between atoms: C_34  and  C_35 
REMARK   13  A    between atoms: C_35  and  C_36 
REMARK   14  A    between atoms: C_36  and  O_38 
REMARK   15  A    between atoms: C_39  and  C_40 
REMARK   16  A    between atoms: C_40  and  C_41 
REMARK   17  A    between atoms: C_41  and  C_42 
REMARK   18  A    between atoms: C_42  and  O_44 
REMARK   19  A    between atoms: C_45  and  C_46 
REMARK   20  A    between atoms: C_46  and  C_47 
REMARK   21  A    between atoms: C_47  and  O_49 
REMARK   22  A    between atoms: C_50  and  C_51 
REMARK   23  A    between atoms: C_51  and  C_52 
REMARK   24  A    between atoms: C_52  and  O_54 
REMARK   25  A    between atoms: C_55  and  C_56 
REMARK   26  A    between atoms: C_56  and  C_57 
REMARK   27  A    between atoms: C_57  and  C_58 
REMARK   28  A    between atoms: C_58  and  O_60 
ROOT
ATOM      1  O   UNK d   0      -6.939  -5.656  -7.119  0.00  0.00    -0.650 OA
ATOM      2  C   UNK d   0      -6.566  -5.180  -6.024  0.00  0.00     0.139 C 
ENDROOT
BRANCH   2   3
ATOM      3  O   UNK d   0      -5.234  -4.906  -5.827  0.00  0.00    -0.776 OA
ATOM      4  H   UNK d   0      -4.576  -4.899  -6.609  0.00  0.00     0.167 HD
ENDBRANCH   2   3
BRANCH   2   5
ATOM      5  C   UNK d   0      -7.561  -4.916  -4.945  0.00  0.00     0.115 C 
BRANCH   5   6
ATOM      6  C   UNK d   0      -6.970  -3.996  -3.911  0.00  0.00     0.052 C 
BRANCH   6   7
ATOM      7  C   UNK d   0      -7.066  -4.558  -2.512  0.00  0.00    -0.020 A 
ATOM      8  C   UNK d   0      -6.145  -5.207  -1.848  0.00  0.00    -0.011 A 
ATOM      9  C   UNK d   0      -6.695  -5.556  -0.549  0.00  0.00     0.067 A 
ATOM     10  C   UNK d   0      -6.235  -6.213   0.603  0.00  0.00     0.062 C 
ATOM     11  N   UNK d   0      -7.960  -5.085  -0.510  0.00  0.00    -0.248 NA
ATOM     12  C   UNK d   0      -6.824  -6.211   1.872  0.00  0.00     0.041 A 
ATOM     13  N   UNK d   0      -8.110  -6.328   2.252  0.00  0.00    -0.355 N 
ATOM     14  C   UNK d   0      -6.009  -6.002   3.000  0.00  0.00    -0.022 A 
ATOM     15  C   UNK d   0      -8.133  -6.191   3.592  0.00  0.00     0.042 A 
ATOM     16  H   UNK d   0      -8.982  -6.523   1.590  0.00  0.00     0.166 HD
ATOM     17  C   UNK d   0      -9.214  -6.231   4.495  0.00  0.00     0.062 C 
ATOM     18  C   UNK d   0      -6.835  -5.985   4.096  0.00  0.00    -0.013 A 
ATOM     19  C   UNK d   0     -10.445  -5.633   4.394  0.00  0.00     0.067 A 
ATOM     20  N   UNK d   0     -10.763  -5.100   3.212  0.00  0.00    -0.248 NA
ATOM     21  C   UNK d   0     -11.566  -5.393   5.287  0.00  0.00    -0.011 A 
ATOM     22  C   UNK d   0     -12.010  -4.527   3.268  0.00  0.00     0.066 A 
ATOM     23  C   UNK d   0     -12.484  -3.966   2.091  0.00  0.00     0.062 C 
ATOM     24  C   UNK d   0     -12.477  -4.742   4.623  0.00  0.00    -0.020 A 
ATOM     25  C   UNK d   0     -11.882  -3.990   0.823  0.00  0.00     0.041 A 
ATOM     26  N   UNK d   0     -10.606  -3.859   0.444  0.00  0.00    -0.355 N 
ATOM     27  C   UNK d   0     -12.700  -4.204  -0.308  0.00  0.00    -0.022 A 
ATOM     28  C   UNK d   0     -10.581  -3.986  -0.893  0.00  0.00     0.042 A 
ATOM     29  H   UNK d   0      -9.732  -3.652   1.110  0.00  0.00     0.166 HD
ATOM     30  C   UNK d   0      -9.514  -3.940  -1.804  0.00  0.00     0.062 C 
ATOM     31  C   UNK d   0     -11.885  -4.204  -1.398  0.00  0.00    -0.013 A 
ATOM     32  C   UNK d   0      -8.243  -4.474  -1.661  0.00  0.00     0.066 A 
BRANCH   8  33
ATOM     33  C   UNK d   0      -4.786  -5.541  -2.315  0.00  0.00     0.151 C 
BRANCH  33  34
ATOM     34  C   UNK d   0      -4.700  -6.892  -2.898  0.00  0.00     0.143 C 
ATOM     35  O   UNK d   0      -4.348  -7.055  -4.075  0.00  0.00    -0.650 OA
BRANCH  34  36
ATOM     36  O   UNK d   0      -5.015  -7.983  -2.123  0.00  0.00    -0.776 OA
ATOM     37  H   UNK d   0      -5.566  -8.766  -2.502  0.00  0.00     0.167 HD
ENDBRANCH  34  36
ENDBRANCH  33  34
ENDBRANCH   8  33
BRANCH  31  38
ATOM     38  C   UNK d   0     -12.313  -4.410  -2.832  0.00  0.00     0.151 C 
BRANCH  38  39
ATOM     39  C   UNK d   0     -12.365  -5.808  -3.207  0.00  0.00     0.143 C 
ATOM     40  O   UNK d   0     -13.008  -6.209  -4.192  0.00  0.00    -0.650 OA
BRANCH  39  41
ATOM     41  O   UNK d   0     -11.672  -6.748  -2.445  0.00  0.00    -0.776 OA
ATOM     42  H   UNK d   0     -10.748  -7.030  -2.788  0.00  0.00     0.167 HD
ENDBRANCH  39  41
ENDBRANCH  38  39
ENDBRANCH  31  38
BRANCH  27  43
ATOM     43  C   UNK d   0     -14.193  -4.402  -0.388  0.00  0.00     0.052 C 
BRANCH  43  44
ATOM     44  C   UNK d   0     -14.949  -3.128  -0.582  0.00  0.00     0.115 C 
BRANCH  44  45
ATOM     45  C   UNK d   0     -16.365  -3.506  -0.822  0.00  0.00     0.139 C 
ATOM     46  O   UNK d   0     -17.125  -3.617   0.172  0.00  0.00    -0.650 OA
BRANCH  45  47
ATOM     47  O   UNK d   0     -16.875  -3.733  -2.082  0.00  0.00    -0.776 OA
ATOM     48  H   UNK d   0     -16.532  -3.241  -2.922  0.00  0.00     0.167 HD
ENDBRANCH  45  47
ENDBRANCH  44  45
ENDBRANCH  43  44
ENDBRANCH  27  43
BRANCH  24  49
ATOM     49  C   UNK d   0     -13.795  -4.328   5.134  0.00  0.00     0.052 C 
BRANCH  49  50
ATOM     50  C   UNK d   0     -14.892  -5.081   4.426  0.00  0.00     0.115 C 
BRANCH  50  51
ATOM     51  C   UNK d   0     -16.043  -4.311   3.976  0.00  0.00     0.139 C 
ATOM     52  O   UNK d   0     -17.114  -4.253   4.625  0.00  0.00    -0.650 OA
BRANCH  51  53
ATOM     53  O   UNK d   0     -15.974  -3.608   2.783  0.00  0.00    -0.776 OA
ATOM     54  H   UNK d   0     -16.815  -3.503   2.243  0.00  0.00     0.167 HD
ENDBRANCH  51  53
ENDBRANCH  50  51
ENDBRANCH  49  50
ENDBRANCH  24  49
BRANCH  21  55
ATOM     55  C   UNK d   0     -11.612  -5.844   6.710  0.00  0.00     0.151 C 
BRANCH  55  56
ATOM     56  C   UNK d   0     -11.160  -4.794   7.636  0.00  0.00     0.143 C 
ATOM     57  O   UNK d   0     -11.688  -4.602   8.749  0.00  0.00    -0.650 OA
BRANCH  56  58
ATOM     58  O   UNK d   0     -10.094  -3.989   7.234  0.00  0.00    -0.776 OA
ATOM     59  H   UNK d   0     -10.352  -3.017   6.985  0.00  0.00     0.167 HD
ENDBRANCH  56  58
ENDBRANCH  55  56
ENDBRANCH  21  55
BRANCH  18  60
ATOM     60  C   UNK d   0      -6.378  -5.779   5.519  0.00  0.00     0.151 C 
BRANCH  60  61
ATOM     61  C   UNK d   0      -6.549  -4.345   5.795  0.00  0.00     0.143 C 
ATOM     62  O   UNK d   0      -7.611  -3.729   5.890  0.00  0.00    -0.650 OA
BRANCH  61  63
ATOM     63  O   UNK d   0      -5.347  -3.616   5.965  0.00  0.00    -0.776 OA
ATOM     64  H   UNK d   0      -4.991  -3.026   5.235  0.00  0.00     0.167 HD
ENDBRANCH  61  63
ENDBRANCH  60  61
ENDBRANCH  18  60
BRANCH  14  65
ATOM     65  C   UNK d   0      -4.515  -5.917   3.128  0.00  0.00     0.052 C 
BRANCH  65  66
ATOM     66  C   UNK d   0      -3.959  -4.633   2.622  0.00  0.00     0.115 C 
BRANCH  66  67
ATOM     67  C   UNK d   0      -3.583  -3.605   3.551  0.00  0.00     0.139 C 
ATOM     68  O   UNK d   0      -2.793  -3.911   4.518  0.00  0.00    -0.650 OA
BRANCH  67  69
ATOM     69  O   UNK d   0      -3.974  -2.267   3.547  0.00  0.00    -0.776 OA
ATOM     70  H   UNK d   0      -3.745  -1.735   2.695  0.00  0.00     0.167 HD
ENDBRANCH  67  69
ENDBRANCH  66  67
ENDBRANCH  65  66
ENDBRANCH  14  65
ENDBRANCH   6   7
ENDBRANCH   5   6
ENDBRANCH   2   5
TORSDOF 28
ENDMDL
MODEL 20
REMARK VINA RESULT:      -7.1     21.521     23.245
REMARK  28 active torsions:
REMARK  status: ('A' for Active; 'I' for Inactive)
REMARK    1  A    between atoms: C_2  and  O_3 
REMARK    2  A    between atoms: C_2  and  C_4 
REMARK    3  A    between atoms: C_4  and  C_5 
REMARK    4  A    between atoms: C_5  and  C_6 
REMARK    5  A    between atoms: C_7  and  C_8 
REMARK    6  A    between atoms: C_8  and  C_9 
REMARK    7  A    between atoms: C_9  and  O_11 
REMARK    8  A    between atoms: C_28  and  C_29 
REMARK    9  A    between atoms: C_29  and  C_30 
REMARK   10  A    between atoms: C_30  and  O_32 
REMARK   11  A    between atoms: C_33  and  C_34 
REMARK   12  A    between atoms: C_34  and  C_35 
REMARK   13  A    between atoms: C_35  and  C_36 
REMARK   14  A    between atoms: C_36  and  O_38 
REMARK   15  A    between atoms: C_39  and  C_40 
REMARK   16  A    between atoms: C_40  and  C_41 
REMARK   17  A    between atoms: C_41  and  C_42 
REMARK   18  A    between atoms: C_42  and  O_44 
REMARK   19  A    between atoms: C_45  and  C_46 
REMARK   20  A    between atoms: C_46  and  C_47 
REMARK   21  A    between atoms: C_47  and  O_49 
REMARK   22  A    between atoms: C_50  and  C_51 
REMARK   23  A    between atoms: C_51  and  C_52 
REMARK   24  A    between atoms: C_52  and  O_54 
REMARK   25  A    between atoms: C_55  and  C_56 
REMARK   26  A    between atoms: C_56  and  C_57 
REMARK   27  A    between atoms: C_57  and  C_58 
REMARK   28  A    between atoms: C_58  and  O_60 
ROOT
ATOM      1  O   UNK d   0     -15.658  -9.102  -7.836  0.00  0.00    -0.650 OA
ATOM      2  C   UNK d   0     -15.222  -7.951  -7.614  0.00  0.00     0.139 C 
ENDROOT
BRANCH   2   3
ATOM      3  O   UNK d   0     -15.921  -6.864  -8.084  0.00  0.00    -0.776 OA
ATOM      4  H   UNK d   0     -15.750  -6.492  -9.020  0.00  0.00     0.167 HD
ENDBRANCH   2   3
BRANCH   2   5
ATOM      5  C   UNK d   0     -13.956  -7.763  -6.849  0.00  0.00     0.115 C 
BRANCH   5   6
ATOM      6  C   UNK d   0     -14.126  -8.259  -5.439  0.00  0.00     0.052 C 
BRANCH   6   7
ATOM      7  C   UNK d   0     -13.627  -7.272  -4.412  0.00  0.00    -0.020 A 
ATOM      8  C   UNK d   0     -14.326  -6.383  -3.754  0.00  0.00    -0.011 A 
ATOM      9  C   UNK d   0     -13.416  -5.656  -2.884  0.00  0.00     0.067 A 
ATOM     10  C   UNK d   0     -13.526  -4.626  -1.937  0.00  0.00     0.062 C 
ATOM     11  N   UNK d   0     -12.181  -6.164  -3.082  0.00  0.00    -0.248 NA
ATOM     12  C   UNK d   0     -12.572  -4.242  -0.988  0.00  0.00     0.041 A 
ATOM     13  N   UNK d   0     -11.238  -4.084  -1.085  0.00  0.00    -0.355 N 
ATOM     14  C   UNK d   0     -12.985  -4.012   0.337  0.00  0.00    -0.022 A 
ATOM     15  C   UNK d   0     -10.793  -3.769   0.145  0.00  0.00     0.042 A 
ATOM     16  H   UNK d   0     -10.627  -4.175  -2.010  0.00  0.00     0.166 HD
ATOM     17  C   UNK d   0      -9.488  -3.498   0.603  0.00  0.00     0.062 C 
ATOM     18  C   UNK d   0     -11.859  -3.714   1.064  0.00  0.00    -0.013 A 
ATOM     19  C   UNK d   0      -8.323  -4.170   0.334  0.00  0.00     0.067 A 
ATOM     20  N   UNK d   0      -8.363  -5.085  -0.638  0.00  0.00    -0.248 NA
ATOM     21  C   UNK d   0      -6.970  -4.167   0.864  0.00  0.00    -0.011 A 
ATOM     22  C   UNK d   0      -7.135  -5.682  -0.781  0.00  0.00     0.066 A 
ATOM     23  C   UNK d   0      -7.024  -6.631  -1.787  0.00  0.00     0.062 C 
ATOM     24  C   UNK d   0      -6.280  -5.057   0.209  0.00  0.00    -0.020 A 
ATOM     25  C   UNK d   0      -7.991  -6.993  -2.738  0.00  0.00     0.041 A 
ATOM     26  N   UNK d   0      -9.314  -7.164  -2.638  0.00  0.00    -0.355 N 
ATOM     27  C   UNK d   0      -7.577  -7.219  -4.069  0.00  0.00    -0.022 A 
ATOM     28  C   UNK d   0      -9.760  -7.488  -3.862  0.00  0.00     0.042 A 
ATOM     29  H   UNK d   0      -9.926  -7.083  -1.706  0.00  0.00     0.166 HD
ATOM     30  C   UNK d   0     -11.053  -7.769  -4.330  0.00  0.00     0.062 C 
ATOM     31  C   UNK d   0      -8.690  -7.532  -4.787  0.00  0.00    -0.013 A 
ATOM     32  C   UNK d   0     -12.241  -7.140  -3.989  0.00  0.00     0.066 A 
BRANCH   8  33
ATOM     33  C   UNK d   0     -15.776  -6.140  -3.862  0.00  0.00     0.151 C 
BRANCH  33  34
ATOM     34  C   UNK d   0     -16.098  -4.972  -4.702  0.00  0.00     0.143 C 
ATOM     35  O   UNK d   0     -15.582  -4.831  -5.820  0.00  0.00    -0.650 OA
BRANCH  34  36
ATOM     36  O   UNK d   0     -16.982  -4.028  -4.236  0.00  0.00    -0.776 OA
ATOM     37  H   UNK d   0     -16.727  -3.031  -4.194  0.00  0.00     0.167 HD
ENDBRANCH  34  36
ENDBRANCH  33  34
ENDBRANCH   8  33
BRANCH  31  38
ATOM     38  C   UNK d   0      -8.739  -7.841  -6.265  0.00  0.00     0.151 C 
BRANCH  38  39
ATOM     39  C   UNK d   0      -9.524  -6.883  -7.014  0.00  0.00     0.143 C 
ATOM     40  O   UNK d   0     -10.482  -7.223  -7.730  0.00  0.00    -0.650 OA
BRANCH  39  41
ATOM     41  O   UNK d   0      -9.207  -5.527  -6.937  0.00  0.00    -0.776 OA
ATOM     42  H   UNK d   0      -9.455  -4.949  -7.746  0.00  0.00     0.167 HD
ENDBRANCH  39  41
ENDBRANCH  38  39
ENDBRANCH  31  38
BRANCH  27  43
ATOM     43  C   UNK d   0      -6.193  -7.152  -4.667  0.00  0.00     0.052 C 
BRANCH  43  44
ATOM     44  C   UNK d   0      -5.552  -5.810  -4.522  0.00  0.00     0.115 C 
BRANCH  44  45
ATOM     45  C   UNK d   0      -6.098  -4.959  -5.611  0.00  0.00     0.139 C 
ATOM     46  O   UNK d   0      -6.140  -5.437  -6.771  0.00  0.00    -0.650 OA
BRANCH  45  47
ATOM     47  O   UNK d   0      -6.562  -3.679  -5.398  0.00  0.00    -0.776 OA
ATOM     48  H   UNK d   0      -7.199  -3.197  -6.053  0.00  0.00     0.167 HD
ENDBRANCH  45  47
ENDBRANCH  44  45
ENDBRANCH  43  44
ENDBRANCH  27  43
BRANCH  24  49
ATOM     49  C   UNK d   0      -4.851  -5.358   0.397  0.00  0.00     0.052 C 
BRANCH  49  50
ATOM     50  C   UNK d   0      -4.679  -6.529   1.330  0.00  0.00     0.115 C 
BRANCH  50  51
ATOM     51  C   UNK d   0      -4.085  -6.260   2.632  0.00  0.00     0.139 C 
ATOM     52  O   UNK d   0      -2.873  -5.975   2.777  0.00  0.00    -0.650 OA
BRANCH  51  53
ATOM     53  O   UNK d   0      -4.874  -6.319   3.771  0.00  0.00    -0.776 OA
ATOM     54  H   UNK d   0      -4.440  -6.593   4.636  0.00  0.00     0.167 HD
ENDBRANCH  51  53
ENDBRANCH  50  51
ENDBRANCH  49  50
ENDBRANCH  24  49
BRANCH  21  55
ATOM     55  C   UNK d   0      -6.505  -3.273   1.965  0.00  0.00     0.151 C 
BRANCH  55  56
ATOM     56  C   UNK d   0      -7.210  -3.542   3.228  0.00  0.00     0.143 C 
ATOM     57  O   UNK d   0      -7.237  -4.669   3.759  0.00  0.00    -0.650 OA
BRANCH  56  58
ATOM     58  O   UNK d   0      -7.870  -2.478   3.842  0.00  0.00    -0.776 OA
ATOM     59  H   UNK d   0      -8.543  -1.975   3.236  0.00  0.00     0.167 HD
ENDBRANCH  56  58
ENDBRANCH  55  56
ENDBRANCH  21  55
BRANCH  18  60
ATOM     60  C   UNK d   0     -11.840  -3.406   2.541  0.00  0.00     0.151 C 
BRANCH  60  61
ATOM     61  C   UNK d   0     -11.268  -4.593   3.194  0.00  0.00     0.143 C 
ATOM     62  O   UNK d   0     -11.540  -5.772   2.962  0.00  0.00    -0.650 OA
BRANCH  61  63
ATOM     63  O   UNK d   0     -10.302  -4.324   4.193  0.00  0.00    -0.776 OA
ATOM     64  H   UNK d   0     -10.025  -5.032   4.850  0.00  0.00     0.167 HD
ENDBRANCH  61  63
ENDBRANCH  60  61
ENDBRANCH  18  60
BRANCH  14  65
ATOM     65  C   UNK d   0     -14.359  -3.957   0.941  0.00  0.00     0.052 C 
BRANCH  65  66
ATOM     66  C   UNK d   0     -14.802  -5.263   1.499  0.00  0.00     0.115 C 
BRANCH  66  67
ATOM     67  C   UNK d   0     -15.964  -5.319   2.342  0.00  0.00     0.139 C 
ATOM     68  O   UNK d   0     -17.119  -5.134   1.807  0.00  0.00    -0.650 OA
BRANCH  67  69
ATOM     69  O   UNK d   0     -16.011  -5.557   3.715  0.00  0.00    -0.776 OA
ATOM     70  H   UNK d   0     -15.101  -5.585   4.196  0.00  0.00     0.167 HD
ENDBRANCH  67  69
ENDBRANCH  66  67
ENDBRANCH  65  66
ENDBRANCH  14  65
ENDBRANCH   6   7
ENDBRANCH   5   6
ENDBRANCH   2   5
TORSDOF 28
ENDMDL
