MODEL 1
REMARK VINA RESULT:      -9.8      0.000      0.000
REMARK  16 active torsions:
REMARK  status: ('A' for Active; 'I' for Inactive)
REMARK    1  A    between atoms: C_6  and  C_7 
REMARK    2  A    between atoms: C_7  and  C_8 
REMARK    3  A    between atoms: C_8  and  C_9 
REMARK    4  A    between atoms: C_9  and  O_11 
REMARK    5  A    between atoms: C_16  and  C_17 
REMARK    6  A    between atoms: C_17  and  C_18 
REMARK    7  A    between atoms: C_18  and  C_19 
REMARK    8  A    between atoms: C_19  and  O_21 
REMARK    9  A    between atoms: C_28  and  C_29 
REMARK   10  A    between atoms: C_29  and  C_30 
REMARK   11  A    between atoms: C_30  and  C_31 
REMARK   12  A    between atoms: C_31  and  O_33 
REMARK   13  A    between atoms: C_42  and  C_43 
REMARK   14  A    between atoms: C_43  and  C_44 
REMARK   15  A    between atoms: C_44  and  C_45 
REMARK   16  A    between atoms: C_45  and  O_47 
ROOT
HETATM    1  C   UNK     0       9.300  -8.597   8.925  0.00  0.00     0.051 C 
HETATM    2  C   UNK     0       9.921  -7.216   8.859  0.00  0.00    -0.031 A 
HETATM    3  C   UNK     0       9.682  -6.105   9.653  0.00  0.00     0.021 A 
HETATM    4  N   UNK     0      10.443  -5.076   9.212  0.00  0.00    -0.361 N 
HETATM    5  C   UNK     0      11.168  -5.509   8.160  0.00  0.00     0.022 A 
HETATM    6  C   UNK     0      10.864  -6.843   7.911  0.00  0.00    -0.027 A 
HETATM    7  C   UNK     0      12.226  -4.797   7.375  0.00  0.00     0.115 C 
HETATM    8  C   UNK     0      13.226  -3.976   8.169  0.00  0.00     0.021 A 
HETATM    9  N   UNK     0      13.748  -4.233   9.378  0.00  0.00    -0.361 N 
HETATM   10  C   UNK     0      14.521  -3.185   9.733  0.00  0.00     0.022 A 
HETATM   11  C   UNK     0      14.505  -2.230   8.720  0.00  0.00    -0.027 A 
HETATM   12  C   UNK     0      13.691  -2.722   7.732  0.00  0.00    -0.031 A 
HETATM   13  C   UNK     0      13.379  -2.023   6.427  0.00  0.00     0.051 C 
HETATM   14  C   UNK     0      15.261  -3.018  11.057  0.00  0.00     0.115 C 
HETATM   15  C   UNK     0      14.348  -2.996  12.273  0.00  0.00     0.021 A 
HETATM   16  N   UNK     0      13.487  -3.951  12.671  0.00  0.00    -0.361 N 
HETATM   17  C   UNK     0      12.822  -3.521  13.746  0.00  0.00     0.022 A 
HETATM   18  C   UNK     0      13.277  -2.228  14.069  0.00  0.00    -0.027 A 
HETATM   19  C   UNK     0      14.234  -1.911  13.140  0.00  0.00    -0.031 A 
HETATM   20  C   UNK     0      15.015  -0.609  13.142  0.00  0.00     0.051 C 
HETATM   21  C   UNK     0      11.705  -4.179  14.524  0.00  0.00     0.115 C 
HETATM   22  C   UNK     0      10.728  -5.035  13.754  0.00  0.00     0.022 A 
HETATM   23  N   UNK     0      10.195  -4.806  12.547  0.00  0.00    -0.361 N 
HETATM   24  C   UNK     0       9.491  -5.896  12.180  0.00  0.00     0.021 A 
HETATM   25  C   UNK     0       9.564  -6.847  13.180  0.00  0.00    -0.031 A 
HETATM   26  C   UNK     0       8.910  -8.211  13.248  0.00  0.00     0.051 C 
HETATM   27  C   UNK     0      10.350  -6.319  14.198  0.00  0.00    -0.027 A 
HETATM   28  C   UNK     0       8.786  -6.145  10.858  0.00  0.00     0.115 C 
HETATM   29  H   UNK     0      10.433  -4.039   9.622  0.00  0.00     0.165 HD
HETATM   30  H   UNK     0      13.612  -5.176   9.962  0.00  0.00     0.165 HD
HETATM   31  H   UNK     0      13.380  -4.969  12.214  0.00  0.00     0.165 HD
HETATM   32  H   UNK     0      10.275  -3.854  11.960  0.00  0.00     0.165 HD
ENDROOT
BRANCH   6  33
HETATM   33  C   UNK     0      11.393  -7.777   6.852  0.00  0.00     0.051 C 
BRANCH  33  34
HETATM   34  C   UNK     0      10.505  -7.758   5.630  0.00  0.00     0.114 C 
BRANCH  34  35
HETATM   35  C   UNK     0      11.148  -6.864   4.625  0.00  0.00     0.139 C 
HETATM   36  O   UNK     0      12.231  -7.206   4.068  0.00  0.00    -0.650 OA
BRANCH  35  37
HETATM   37  O   UNK     0      10.604  -5.640   4.255  0.00  0.00    -0.776 OA
HETATM   38  H   UNK     0       9.647  -5.397   4.456  0.00  0.00     0.167 HD
ENDBRANCH  35  37
ENDBRANCH  34  35
ENDBRANCH  33  34
ENDBRANCH   6  33
BRANCH  27  39
HETATM   39  C   UNK     0      10.598  -7.030  15.482  0.00  0.00     0.051 C 
BRANCH  39  40
HETATM   40  C   UNK     0      11.917  -7.623  15.703  0.00  0.00     0.114 C 
BRANCH  40  41
HETATM   41  C   UNK     0      12.359  -8.804  14.996  0.00  0.00     0.139 C 
HETATM   42  O   UNK     0      13.484  -8.918  14.492  0.00  0.00    -0.650 OA
BRANCH  41  43
HETATM   43  O   UNK     0      11.465  -9.904  14.863  0.00  0.00    -0.776 OA
HETATM   44  H   UNK     0      10.757  -9.785  14.149  0.00  0.00     0.167 HD
ENDBRANCH  41  43
ENDBRANCH  40  41
ENDBRANCH  39  40
ENDBRANCH  27  39
BRANCH  11  45
HETATM   45  C   UNK     0      15.218  -0.907   8.662  0.00  0.00     0.051 C 
BRANCH  45  46
HETATM   46  C   UNK     0      14.453   0.221   9.252  0.00  0.00     0.114 C 
BRANCH  46  47
HETATM   47  C   UNK     0      14.629   1.395   8.349  0.00  0.00     0.139 C 
HETATM   48  O   UNK     0      15.019   2.464   8.837  0.00  0.00    -0.650 OA
BRANCH  47  49
HETATM   49  O   UNK     0      14.363   1.294   7.006  0.00  0.00    -0.776 OA
HETATM   50  H   UNK     0      13.415   1.407   6.628  0.00  0.00     0.167 HD
ENDBRANCH  47  49
ENDBRANCH  46  47
ENDBRANCH  45  46
ENDBRANCH  11  45
BRANCH  18  51
HETATM   51  C   UNK     0      12.840  -1.350  15.213  0.00  0.00     0.051 C 
BRANCH  51  52
HETATM   52  C   UNK     0      11.562  -0.662  14.757  0.00  0.00     0.114 C 
BRANCH  52  53
HETATM   53  C   UNK     0      11.582   0.784  15.052  0.00  0.00     0.139 C 
HETATM   54  O   UNK     0      12.154   1.568  14.278  0.00  0.00    -0.650 OA
BRANCH  53  55
HETATM   55  O   UNK     0      10.967   1.255  16.186  0.00  0.00    -0.776 OA
HETATM   56  H   UNK     0      10.162   0.866  16.618  0.00  0.00     0.167 HD
ENDBRANCH  53  55
ENDBRANCH  52  53
ENDBRANCH  51  52
ENDBRANCH  18  51
TORSDOF 16
ENDMDL
MODEL 2
REMARK VINA RESULT:      -9.8     31.597     34.881
REMARK  16 active torsions:
REMARK  status: ('A' for Active; 'I' for Inactive)
REMARK    1  A    between atoms: C_6  and  C_7 
REMARK    2  A    between atoms: C_7  and  C_8 
REMARK    3  A    between atoms: C_8  and  C_9 
REMARK    4  A    between atoms: C_9  and  O_11 
REMARK    5  A    between atoms: C_16  and  C_17 
REMARK    6  A    between atoms: C_17  and  C_18 
REMARK    7  A    between atoms: C_18  and  C_19 
REMARK    8  A    between atoms: C_19  and  O_21 
REMARK    9  A    between atoms: C_28  and  C_29 
REMARK   10  A    between atoms: C_29  and  C_30 
REMARK   11  A    between atoms: C_30  and  C_31 
REMARK   12  A    between atoms: C_31  and  O_33 
REMARK   13  A    between atoms: C_42  and  C_43 
REMARK   14  A    between atoms: C_43  and  C_44 
REMARK   15  A    between atoms: C_44  and  C_45 
REMARK   16  A    between atoms: C_45  and  O_47 
ROOT
HETATM    1  C   UNK     0     -15.569   0.301  -5.467  0.00  0.00     0.051 C 
HETATM    2  C   UNK     0     -14.525   0.106  -6.548  0.00  0.00    -0.031 A 
HETATM    3  C   UNK     0     -14.128  -1.058  -7.188  0.00  0.00     0.021 A 
HETATM    4  N   UNK     0     -13.139  -0.764  -8.065  0.00  0.00    -0.361 N 
HETATM    5  C   UNK     0     -12.903   0.563  -8.004  0.00  0.00     0.022 A 
HETATM    6  C   UNK     0     -13.750   1.137  -7.063  0.00  0.00    -0.027 A 
HETATM    7  C   UNK     0     -11.980   1.405  -8.830  0.00  0.00     0.115 C 
HETATM    8  C   UNK     0     -11.945   1.116 -10.320  0.00  0.00     0.021 A 
HETATM    9  N   UNK     0     -12.953   0.743 -11.124  0.00  0.00    -0.361 N 
HETATM   10  C   UNK     0     -12.445   0.508 -12.352  0.00  0.00     0.022 A 
HETATM   11  C   UNK     0     -11.074   0.746 -12.342  0.00  0.00    -0.027 A 
HETATM   12  C   UNK     0     -10.752   1.129 -11.065  0.00  0.00    -0.031 A 
HETATM   13  C   UNK     0      -9.366   1.496 -10.585  0.00  0.00     0.051 C 
HETATM   14  C   UNK     0     -13.219   0.002 -13.566  0.00  0.00     0.115 C 
HETATM   15  C   UNK     0     -13.856  -1.364 -13.364  0.00  0.00     0.021 A 
HETATM   16  N   UNK     0     -14.749  -1.723 -12.423  0.00  0.00    -0.361 N 
HETATM   17  C   UNK     0     -15.008  -3.027 -12.539  0.00  0.00     0.022 A 
HETATM   18  C   UNK     0     -14.255  -3.541 -13.613  0.00  0.00    -0.027 A 
HETATM   19  C   UNK     0     -13.538  -2.489 -14.122  0.00  0.00    -0.031 A 
HETATM   20  C   UNK     0     -12.616  -2.599 -15.322  0.00  0.00     0.051 C 
HETATM   21  C   UNK     0     -15.878  -3.924 -11.689  0.00  0.00     0.115 C 
HETATM   22  C   UNK     0     -15.958  -3.622 -10.211  0.00  0.00     0.022 A 
HETATM   23  N   UNK     0     -14.971  -3.244  -9.387  0.00  0.00    -0.361 N 
HETATM   24  C   UNK     0     -15.513  -2.941  -8.190  0.00  0.00     0.021 A 
HETATM   25  C   UNK     0     -16.879  -3.138  -8.241  0.00  0.00    -0.031 A 
HETATM   26  C   UNK     0     -17.908  -2.971  -7.142  0.00  0.00     0.051 C 
HETATM   27  C   UNK     0     -17.188  -3.574  -9.524  0.00  0.00    -0.027 A 
HETATM   28  C   UNK     0     -14.808  -2.379  -6.967  0.00  0.00     0.115 C 
HETATM   29  H   UNK     0     -12.588  -1.502  -8.693  0.00  0.00     0.165 HD
HETATM   30  H   UNK     0     -14.033   0.693 -10.840  0.00  0.00     0.165 HD
HETATM   31  H   UNK     0     -15.244  -1.032 -11.692  0.00  0.00     0.165 HD
HETATM   32  H   UNK     0     -13.877  -3.230  -9.630  0.00  0.00     0.165 HD
ENDROOT
BRANCH   6  33
HETATM   33  C   UNK     0     -13.877   2.573  -6.620  0.00  0.00     0.051 C 
BRANCH  33  34
HETATM   34  C   UNK     0     -14.737   3.357  -7.583  0.00  0.00     0.114 C 
BRANCH  34  35
HETATM   35  C   UNK     0     -14.588   4.800  -7.241  0.00  0.00     0.139 C 
HETATM   36  O   UNK     0     -15.398   5.352  -6.440  0.00  0.00    -0.650 OA
BRANCH  35  37
HETATM   37  O   UNK     0     -13.578   5.595  -7.769  0.00  0.00    -0.776 OA
HETATM   38  H   UNK     0     -13.730   6.560  -8.014  0.00  0.00     0.167 HD
ENDBRANCH  35  37
ENDBRANCH  34  35
ENDBRANCH  33  34
ENDBRANCH   6  33
BRANCH  27  39
HETATM   39  C   UNK     0     -18.564  -3.959  -9.941  0.00  0.00     0.051 C 
BRANCH  39  40
HETATM   40  C   UNK     0     -19.262  -3.107 -10.902  0.00  0.00     0.114 C 
BRANCH  40  41
HETATM   41  C   UNK     0     -18.892  -1.727 -11.120  0.00  0.00     0.139 C 
HETATM   42  O   UNK     0     -18.123  -1.359 -12.018  0.00  0.00    -0.650 OA
BRANCH  41  43
HETATM   43  O   UNK     0     -19.431  -0.724 -10.265  0.00  0.00    -0.776 OA
HETATM   44  H   UNK     0     -19.997  -0.030 -10.739  0.00  0.00     0.167 HD
ENDBRANCH  41  43
ENDBRANCH  40  41
ENDBRANCH  39  40
ENDBRANCH  27  39
BRANCH  11  45
HETATM   45  C   UNK     0     -10.089   0.626 -13.474  0.00  0.00     0.051 C 
BRANCH  45  46
HETATM   46  C   UNK     0     -10.156   1.739 -14.455  0.00  0.00     0.114 C 
BRANCH  46  47
HETATM   47  C   UNK     0      -8.831   2.424 -14.437  0.00  0.00     0.139 C 
HETATM   48  O   UNK     0      -8.710   3.495 -15.048  0.00  0.00    -0.650 OA
BRANCH  47  49
HETATM   49  O   UNK     0      -7.769   1.882 -13.760  0.00  0.00    -0.776 OA
HETATM   50  H   UNK     0      -7.257   1.065 -14.114  0.00  0.00     0.167 HD
ENDBRANCH  47  49
ENDBRANCH  46  47
ENDBRANCH  45  46
ENDBRANCH  11  45
BRANCH  18  51
HETATM   51  C   UNK     0     -14.235  -4.953 -14.139  0.00  0.00     0.051 C 
BRANCH  51  52
HETATM   52  C   UNK     0     -13.316  -5.739 -13.215  0.00  0.00     0.114 C 
BRANCH  52  53
HETATM   53  C   UNK     0     -13.768  -7.134 -13.048  0.00  0.00     0.139 C 
HETATM   54  O   UNK     0     -14.504  -7.439 -12.097  0.00  0.00    -0.650 OA
BRANCH  53  55
HETATM   55  O   UNK     0     -13.366  -8.090 -13.949  0.00  0.00    -0.776 OA
HETATM   56  H   UNK     0     -13.750  -8.240 -14.852  0.00  0.00     0.167 HD
ENDBRANCH  53  55
ENDBRANCH  52  53
ENDBRANCH  51  52
ENDBRANCH  18  51
TORSDOF 16
ENDMDL
MODEL 3
REMARK VINA RESULT:      -9.7      1.921      7.455
REMARK  16 active torsions:
REMARK  status: ('A' for Active; 'I' for Inactive)
REMARK    1  A    between atoms: C_6  and  C_7 
REMARK    2  A    between atoms: C_7  and  C_8 
REMARK    3  A    between atoms: C_8  and  C_9 
REMARK    4  A    between atoms: C_9  and  O_11 
REMARK    5  A    between atoms: C_16  and  C_17 
REMARK    6  A    between atoms: C_17  and  C_18 
REMARK    7  A    between atoms: C_18  and  C_19 
REMARK    8  A    between atoms: C_19  and  O_21 
REMARK    9  A    between atoms: C_28  and  C_29 
REMARK   10  A    between atoms: C_29  and  C_30 
REMARK   11  A    between atoms: C_30  and  C_31 
REMARK   12  A    between atoms: C_31  and  O_33 
REMARK   13  A    between atoms: C_42  and  C_43 
REMARK   14  A    between atoms: C_43  and  C_44 
REMARK   15  A    between atoms: C_44  and  C_45 
REMARK   16  A    between atoms: C_45  and  O_47 
ROOT
HETATM    1  C   UNK     0      13.764   0.124   8.271  0.00  0.00     0.051 C 
HETATM    2  C   UNK     0      13.440  -1.351   8.390  0.00  0.00    -0.031 A 
HETATM    3  C   UNK     0      13.945  -2.295   9.271  0.00  0.00     0.021 A 
HETATM    4  N   UNK     0      13.392  -3.499   8.992  0.00  0.00    -0.361 N 
HETATM    5  C   UNK     0      12.540  -3.342   7.958  0.00  0.00     0.022 A 
HETATM    6  C   UNK     0      12.548  -2.011   7.555  0.00  0.00    -0.027 A 
HETATM    7  C   UNK     0      11.614  -4.336   7.329  0.00  0.00     0.115 C 
HETATM    8  C   UNK     0      10.848  -5.247   8.272  0.00  0.00     0.021 A 
HETATM    9  N   UNK     0      10.347  -4.964   9.484  0.00  0.00    -0.361 N 
HETATM   10  C   UNK     0       9.828  -6.099   9.998  0.00  0.00     0.022 A 
HETATM   11  C   UNK     0       9.990  -7.139   9.088  0.00  0.00    -0.027 A 
HETATM   12  C   UNK     0      10.632  -6.609   7.998  0.00  0.00    -0.031 A 
HETATM   13  C   UNK     0      11.015  -7.375   6.751  0.00  0.00     0.051 C 
HETATM   14  C   UNK     0       9.208  -6.260  11.383  0.00  0.00     0.115 C 
HETATM   15  C   UNK     0      10.166  -5.960  12.525  0.00  0.00     0.021 A 
HETATM   16  N   UNK     0      10.829  -4.813  12.761  0.00  0.00    -0.361 N 
HETATM   17  C   UNK     0      11.624  -4.976  13.821  0.00  0.00     0.022 A 
HETATM   18  C   UNK     0      11.463  -6.290  14.305  0.00  0.00    -0.027 A 
HETATM   19  C   UNK     0      10.547  -6.896  13.485  0.00  0.00    -0.031 A 
HETATM   20  C   UNK     0      10.054  -8.319  13.676  0.00  0.00     0.051 C 
HETATM   21  C   UNK     0      12.618  -4.024  14.446  0.00  0.00     0.115 C 
HETATM   22  C   UNK     0      13.356  -3.082  13.524  0.00  0.00     0.022 A 
HETATM   23  N   UNK     0      13.862  -3.335  12.310  0.00  0.00    -0.361 N 
HETATM   24  C   UNK     0      14.304  -2.174  11.786  0.00  0.00     0.021 A 
HETATM   25  C   UNK     0      14.087  -1.151  12.688  0.00  0.00    -0.031 A 
HETATM   26  C   UNK     0      14.447   0.316  12.570  0.00  0.00     0.051 C 
HETATM   27  C   UNK     0      13.481  -1.707  13.809  0.00  0.00    -0.027 A 
HETATM   28  C   UNK     0      14.874  -1.939  10.397  0.00  0.00     0.115 C 
HETATM   29  H   UNK     0      13.638  -4.459   9.502  0.00  0.00     0.165 HD
HETATM   30  H   UNK     0      10.314  -3.953   9.960  0.00  0.00     0.165 HD
HETATM   31  H   UNK     0      10.699  -3.853  12.198  0.00  0.00     0.165 HD
HETATM   32  H   UNK     0      13.951  -4.344  11.830  0.00  0.00     0.165 HD
ENDROOT
BRANCH   6  33
HETATM   33  C   UNK     0      11.783  -1.328   6.449  0.00  0.00     0.051 C 
BRANCH  33  34
HETATM   34  C   UNK     0      12.473  -1.526   5.121  0.00  0.00     0.114 C 
BRANCH  34  35
HETATM   35  C   UNK     0      11.424  -1.875   4.120  0.00  0.00     0.139 C 
HETATM   36  O   UNK     0      10.949  -3.047   4.078  0.00  0.00    -0.650 OA
BRANCH  35  37
HETATM   37  O   UNK     0      10.923  -0.955   3.208  0.00  0.00    -0.776 OA
HETATM   38  H   UNK     0      11.445  -0.140   2.928  0.00  0.00     0.167 HD
ENDBRANCH  35  37
ENDBRANCH  34  35
ENDBRANCH  33  34
ENDBRANCH   6  33
BRANCH  27  39
HETATM   39  C   UNK     0      13.156  -0.920  15.029  0.00  0.00     0.051 C 
BRANCH  39  40
HETATM   40  C   UNK     0      11.766  -0.523  15.250  0.00  0.00     0.114 C 
BRANCH  40  41
HETATM   41  C   UNK     0      11.383   0.852  15.475  0.00  0.00     0.139 C 
HETATM   42  O   UNK     0      10.624   1.211  16.385  0.00  0.00    -0.650 OA
BRANCH  41  43
HETATM   43  O   UNK     0      11.897   1.862  14.613  0.00  0.00    -0.776 OA
HETATM   44  H   UNK     0      12.903   1.841  14.496  0.00  0.00     0.167 HD
ENDBRANCH  41  43
ENDBRANCH  40  41
ENDBRANCH  39  40
ENDBRANCH  27  39
BRANCH  11  45
HETATM   45  C   UNK     0       9.564  -8.577   9.215  0.00  0.00     0.051 C 
BRANCH  45  46
HETATM   46  C   UNK     0       8.292  -8.897   8.519  0.00  0.00     0.114 C 
BRANCH  46  47
HETATM   47  C   UNK     0       7.213  -8.898   9.549  0.00  0.00     0.139 C 
HETATM   48  O   UNK     0       6.500  -7.891   9.660  0.00  0.00    -0.650 OA
BRANCH  47  49
HETATM   49  O   UNK     0       7.014  -9.989  10.357  0.00  0.00    -0.776 OA
HETATM   50  H   UNK     0       6.891 -10.934   9.975  0.00  0.00     0.167 HD
ENDBRANCH  47  49
ENDBRANCH  46  47
ENDBRANCH  45  46
ENDBRANCH  11  45
BRANCH  18  51
HETATM   51  C   UNK     0      12.131  -6.927  15.496  0.00  0.00     0.051 C 
BRANCH  51  52
HETATM   52  C   UNK     0      13.588  -7.132  15.109  0.00  0.00     0.114 C 
BRANCH  52  53
HETATM   53  C   UNK     0      13.956  -8.561  15.089  0.00  0.00     0.139 C 
HETATM   54  O   UNK     0      13.097  -9.420  14.836  0.00  0.00    -0.650 OA
BRANCH  53  55
HETATM   55  O   UNK     0      15.251  -8.933  15.355  0.00  0.00    -0.776 OA
HETATM   56  H   UNK     0      16.006  -8.319  15.554  0.00  0.00     0.167 HD
ENDBRANCH  53  55
ENDBRANCH  52  53
ENDBRANCH  51  52
ENDBRANCH  18  51
TORSDOF 16
ENDMDL
MODEL 4
REMARK VINA RESULT:      -9.7     33.761     35.509
REMARK  16 active torsions:
REMARK  status: ('A' for Active; 'I' for Inactive)
REMARK    1  A    between atoms: C_6  and  C_7 
REMARK    2  A    between atoms: C_7  and  C_8 
REMARK    3  A    between atoms: C_8  and  C_9 
REMARK    4  A    between atoms: C_9  and  O_11 
REMARK    5  A    between atoms: C_16  and  C_17 
REMARK    6  A    between atoms: C_17  and  C_18 
REMARK    7  A    between atoms: C_18  and  C_19 
REMARK    8  A    between atoms: C_19  and  O_21 
REMARK    9  A    between atoms: C_28  and  C_29 
REMARK   10  A    between atoms: C_29  and  C_30 
REMARK   11  A    between atoms: C_30  and  C_31 
REMARK   12  A    between atoms: C_31  and  O_33 
REMARK   13  A    between atoms: C_42  and  C_43 
REMARK   14  A    between atoms: C_43  and  C_44 
REMARK   15  A    between atoms: C_44  and  C_45 
REMARK   16  A    between atoms: C_45  and  O_47 
ROOT
HETATM    1  C   UNK     0     -18.770  -7.743  -6.290  0.00  0.00     0.051 C 
HETATM    2  C   UNK     0     -18.296  -7.155  -7.603  0.00  0.00    -0.031 A 
HETATM    3  C   UNK     0     -18.618  -5.943  -8.192  0.00  0.00     0.021 A 
HETATM    4  N   UNK     0     -17.983  -5.848  -9.384  0.00  0.00    -0.361 N 
HETATM    5  C   UNK     0     -17.256  -6.971  -9.564  0.00  0.00     0.022 A 
HETATM    6  C   UNK     0     -17.431  -7.811  -8.470  0.00  0.00    -0.027 A 
HETATM    7  C   UNK     0     -16.306  -7.323 -10.666  0.00  0.00     0.115 C 
HETATM    8  C   UNK     0     -15.367  -6.225 -11.133  0.00  0.00     0.021 A 
HETATM    9  N   UNK     0     -14.778  -5.263 -10.406  0.00  0.00    -0.361 N 
HETATM   10  C   UNK     0     -14.104  -4.454 -11.250  0.00  0.00     0.022 A 
HETATM   11  C   UNK     0     -14.255  -4.912 -12.556  0.00  0.00    -0.027 A 
HETATM   12  C   UNK     0     -15.049  -6.028 -12.489  0.00  0.00    -0.031 A 
HETATM   13  C   UNK     0     -15.478  -6.867 -13.672  0.00  0.00     0.051 C 
HETATM   14  C   UNK     0     -13.337  -3.191 -10.868  0.00  0.00     0.115 C 
HETATM   15  C   UNK     0     -14.202  -2.115 -10.230  0.00  0.00     0.021 A 
HETATM   16  N   UNK     0     -14.946  -2.215  -9.112  0.00  0.00    -0.361 N 
HETATM   17  C   UNK     0     -15.612  -1.074  -8.926  0.00  0.00     0.022 A 
HETATM   18  C   UNK     0     -15.280  -0.184  -9.966  0.00  0.00    -0.027 A 
HETATM   19  C   UNK     0     -14.395  -0.848 -10.776  0.00  0.00    -0.031 A 
HETATM   20  C   UNK     0     -13.752  -0.234 -12.006  0.00  0.00     0.051 C 
HETATM   21  C   UNK     0     -16.627  -0.702  -7.868  0.00  0.00     0.115 C 
HETATM   22  C   UNK     0     -17.539  -1.795  -7.362  0.00  0.00     0.022 A 
HETATM   23  N   UNK     0     -18.136  -2.769  -8.062  0.00  0.00    -0.361 N 
HETATM   24  C   UNK     0     -18.737  -3.607  -7.194  0.00  0.00     0.021 A 
HETATM   25  C   UNK     0     -18.530  -3.157  -5.904  0.00  0.00    -0.031 A 
HETATM   26  C   UNK     0     -19.039  -3.735  -4.600  0.00  0.00     0.051 C 
HETATM   27  C   UNK     0     -17.766  -1.999  -5.986  0.00  0.00    -0.027 A 
HETATM   28  C   UNK     0     -19.461  -4.905  -7.506  0.00  0.00     0.115 C 
HETATM   29  H   UNK     0     -18.084  -5.007 -10.108  0.00  0.00     0.165 HD
HETATM   30  H   UNK     0     -14.795  -5.181  -9.292  0.00  0.00     0.165 HD
HETATM   31  H   UNK     0     -14.965  -3.092  -8.414  0.00  0.00     0.165 HD
HETATM   32  H   UNK     0     -18.175  -2.849  -9.180  0.00  0.00     0.165 HD
ENDROOT
BRANCH   6  33
HETATM   33  C   UNK     0     -16.849  -9.174  -8.190  0.00  0.00     0.051 C 
BRANCH  33  34
HETATM   34  C   UNK     0     -17.733 -10.260  -8.756  0.00  0.00     0.114 C 
BRANCH  34  35
HETATM   35  C   UNK     0     -17.180 -11.568  -8.301  0.00  0.00     0.139 C 
HETATM   36  O   UNK     0     -17.957 -12.484  -7.903  0.00  0.00    -0.650 OA
BRANCH  35  37
HETATM   37  O   UNK     0     -15.818 -11.843  -8.291  0.00  0.00    -0.776 OA
HETATM   38  H   UNK     0     -15.342 -12.213  -9.098  0.00  0.00     0.167 HD
ENDBRANCH  35  37
ENDBRANCH  34  35
ENDBRANCH  33  34
ENDBRANCH   6  33
BRANCH  27  39
HETATM   39  C   UNK     0     -17.400  -1.184  -4.796  0.00  0.00     0.051 C 
BRANCH  39  40
HETATM   40  C   UNK     0     -18.292  -0.095  -4.398  0.00  0.00     0.114 C 
BRANCH  40  41
HETATM   41  C   UNK     0     -19.070  -0.142  -3.180  0.00  0.00     0.139 C 
HETATM   42  O   UNK     0     -18.923  -1.009  -2.308  0.00  0.00    -0.650 OA
BRANCH  41  43
HETATM   43  O   UNK     0     -20.062   0.854  -2.955  0.00  0.00    -0.776 OA
HETATM   44  H   UNK     0     -20.418   0.884  -2.008  0.00  0.00     0.167 HD
ENDBRANCH  41  43
ENDBRANCH  40  41
ENDBRANCH  39  40
ENDBRANCH  27  39
BRANCH  11  45
HETATM   45  C   UNK     0     -13.683  -4.343 -13.826  0.00  0.00     0.051 C 
BRANCH  45  46
HETATM   46  C   UNK     0     -14.436  -3.180 -14.362  0.00  0.00     0.114 C 
BRANCH  46  47
HETATM   47  C   UNK     0     -13.452  -2.297 -15.051  0.00  0.00     0.139 C 
HETATM   48  O   UNK     0     -13.801  -1.719 -16.090  0.00  0.00    -0.650 OA
BRANCH  47  49
HETATM   49  O   UNK     0     -12.186  -2.127 -14.549  0.00  0.00    -0.776 OA
HETATM   50  H   UNK     0     -11.566  -1.377 -14.875  0.00  0.00     0.167 HD
ENDBRANCH  47  49
ENDBRANCH  46  47
ENDBRANCH  45  46
ENDBRANCH  11  45
BRANCH  18  51
HETATM   51  C   UNK     0     -15.762   1.229 -10.167  0.00  0.00     0.051 C 
BRANCH  51  52
HETATM   52  C   UNK     0     -16.940   1.145 -11.127  0.00  0.00     0.114 C 
BRANCH  52  53
HETATM   53  C   UNK     0     -16.804   2.097 -12.247  0.00  0.00     0.139 C 
HETATM   54  O   UNK     0     -16.210   1.757 -13.282  0.00  0.00    -0.650 OA
BRANCH  53  55
HETATM   55  O   UNK     0     -17.336   3.358 -12.135  0.00  0.00    -0.776 OA
HETATM   56  H   UNK     0     -17.358   4.048 -12.848  0.00  0.00     0.167 HD
ENDBRANCH  53  55
ENDBRANCH  52  53
ENDBRANCH  51  52
ENDBRANCH  18  51
TORSDOF 16
ENDMDL
MODEL 5
REMARK VINA RESULT:      -9.5      2.159      7.421
REMARK  16 active torsions:
REMARK  status: ('A' for Active; 'I' for Inactive)
REMARK    1  A    between atoms: C_6  and  C_7 
REMARK    2  A    between atoms: C_7  and  C_8 
REMARK    3  A    between atoms: C_8  and  C_9 
REMARK    4  A    between atoms: C_9  and  O_11 
REMARK    5  A    between atoms: C_16  and  C_17 
REMARK    6  A    between atoms: C_17  and  C_18 
REMARK    7  A    between atoms: C_18  and  C_19 
REMARK    8  A    between atoms: C_19  and  O_21 
REMARK    9  A    between atoms: C_28  and  C_29 
REMARK   10  A    between atoms: C_29  and  C_30 
REMARK   11  A    between atoms: C_30  and  C_31 
REMARK   12  A    between atoms: C_31  and  O_33 
REMARK   13  A    between atoms: C_42  and  C_43 
REMARK   14  A    between atoms: C_43  and  C_44 
REMARK   15  A    between atoms: C_44  and  C_45 
REMARK   16  A    between atoms: C_45  and  O_47 
ROOT
HETATM    1  C   UNK     0      14.228  -0.596   6.154  0.00  0.00     0.051 C 
HETATM    2  C   UNK     0      13.584  -0.478   7.520  0.00  0.00    -0.031 A 
HETATM    3  C   UNK     0      12.356  -0.949   7.958  0.00  0.00     0.021 A 
HETATM    4  N   UNK     0      12.178  -0.585   9.250  0.00  0.00    -0.361 N 
HETATM    5  C   UNK     0      13.270   0.100   9.648  0.00  0.00     0.022 A 
HETATM    6  C   UNK     0      14.168   0.188   8.589  0.00  0.00    -0.027 A 
HETATM    7  C   UNK     0      13.615   0.638  11.001  0.00  0.00     0.115 C 
HETATM    8  C   UNK     0      13.322  -0.263  12.188  0.00  0.00     0.021 A 
HETATM    9  N   UNK     0      13.416  -1.599  12.267  0.00  0.00    -0.361 N 
HETATM   10  C   UNK     0      12.968  -1.980  13.482  0.00  0.00     0.022 A 
HETATM   11  C   UNK     0      12.584  -0.857  14.209  0.00  0.00    -0.027 A 
HETATM   12  C   UNK     0      12.805   0.228  13.400  0.00  0.00    -0.031 A 
HETATM   13  C   UNK     0      12.536   1.668  13.777  0.00  0.00     0.051 C 
HETATM   14  C   UNK     0      12.834  -3.415  13.984  0.00  0.00     0.115 C 
HETATM   15  C   UNK     0      11.885  -4.270  13.160  0.00  0.00     0.021 A 
HETATM   16  N   UNK     0      11.963  -4.550  11.845  0.00  0.00    -0.361 N 
HETATM   17  C   UNK     0      10.901  -5.274  11.487  0.00  0.00     0.022 A 
HETATM   18  C   UNK     0      10.097  -5.485  12.625  0.00  0.00    -0.027 A 
HETATM   19  C   UNK     0      10.725  -4.852  13.666  0.00  0.00    -0.031 A 
HETATM   20  C   UNK     0      10.209  -4.860  15.093  0.00  0.00     0.051 C 
HETATM   21  C   UNK     0      10.483  -5.779  10.125  0.00  0.00     0.115 C 
HETATM   22  C   UNK     0      10.808  -4.913   8.930  0.00  0.00     0.022 A 
HETATM   23  N   UNK     0      10.728  -3.580   8.825  0.00  0.00    -0.361 N 
HETATM   24  C   UNK     0      11.252  -3.217   7.637  0.00  0.00     0.021 A 
HETATM   25  C   UNK     0      11.670  -4.344   6.956  0.00  0.00    -0.031 A 
HETATM   26  C   UNK     0      12.281  -4.451   5.575  0.00  0.00     0.051 C 
HETATM   27  C   UNK     0      11.396  -5.442   7.764  0.00  0.00    -0.027 A 
HETATM   28  C   UNK     0      11.465  -1.810   7.107  0.00  0.00     0.115 C 
HETATM   29  H   UNK     0      11.266  -0.780   9.860  0.00  0.00     0.165 HD
HETATM   30  H   UNK     0      13.844  -2.272  11.485  0.00  0.00     0.165 HD
HETATM   31  H   UNK     0      12.810  -4.271  11.165  0.00  0.00     0.165 HD
HETATM   32  H   UNK     0      10.261  -2.886   9.571  0.00  0.00     0.165 HD
ENDROOT
BRANCH   6  33
HETATM   33  C   UNK     0      15.521   0.850   8.517  0.00  0.00     0.051 C 
BRANCH  33  34
HETATM   34  C   UNK     0      16.563   0.017   9.224  0.00  0.00     0.114 C 
BRANCH  34  35
HETATM   35  C   UNK     0      17.762  -0.044   8.339  0.00  0.00     0.139 C 
HETATM   36  O   UNK     0      17.743   0.512   7.202  0.00  0.00    -0.650 OA
BRANCH  35  37
HETATM   37  O   UNK     0      18.934  -0.693   8.707  0.00  0.00    -0.776 OA
HETATM   38  H   UNK     0      18.941  -1.656   9.003  0.00  0.00     0.167 HD
ENDBRANCH  35  37
ENDBRANCH  34  35
ENDBRANCH  33  34
ENDBRANCH   6  33
BRANCH  27  39
HETATM   39  C   UNK     0      11.643  -6.846   7.335  0.00  0.00     0.051 C 
BRANCH  39  40
HETATM   40  C   UNK     0      10.525  -7.610   6.782  0.00  0.00     0.114 C 
BRANCH  40  41
HETATM   41  C   UNK     0       9.635  -8.385   7.616  0.00  0.00     0.139 C 
HETATM   42  O   UNK     0      10.027  -9.188   8.473  0.00  0.00    -0.650 OA
BRANCH  41  43
HETATM   43  O   UNK     0       8.228  -8.230   7.457  0.00  0.00    -0.776 OA
HETATM   44  H   UNK     0       7.935  -8.014   6.512  0.00  0.00     0.167 HD
ENDBRANCH  41  43
ENDBRANCH  40  41
ENDBRANCH  39  40
ENDBRANCH  27  39
BRANCH  11  45
HETATM   45  C   UNK     0      12.033  -0.785  15.608  0.00  0.00     0.051 C 
BRANCH  45  46
HETATM   46  C   UNK     0      10.554  -0.890  15.683  0.00  0.00     0.114 C 
BRANCH  46  47
HETATM   47  C   UNK     0      10.023   0.487  15.897  0.00  0.00     0.139 C 
HETATM   48  O   UNK     0       9.148   0.910  15.128  0.00  0.00    -0.650 OA
BRANCH  47  49
HETATM   49  O   UNK     0      10.493   1.270  16.920  0.00  0.00    -0.776 OA
HETATM   50  H   UNK     0      10.219   2.255  17.024  0.00  0.00     0.167 HD
ENDBRANCH  47  49
ENDBRANCH  46  47
ENDBRANCH  45  46
ENDBRANCH  11  45
BRANCH  18  51
HETATM   51  C   UNK     0       8.811  -6.265  12.719  0.00  0.00     0.051 C 
BRANCH  51  52
HETATM   52  C   UNK     0       9.190  -7.730  12.569  0.00  0.00     0.114 C 
BRANCH  52  53
HETATM   53  C   UNK     0       9.924  -8.232  13.746  0.00  0.00     0.139 C 
HETATM   54  O   UNK     0       9.336  -8.377  14.830  0.00  0.00    -0.650 OA
BRANCH  53  55
HETATM   55  O   UNK     0      11.260  -8.533  13.637  0.00  0.00    -0.776 OA
HETATM   56  H   UNK     0      11.933  -8.023  13.115  0.00  0.00     0.167 HD
ENDBRANCH  53  55
ENDBRANCH  52  53
ENDBRANCH  51  52
ENDBRANCH  18  51
TORSDOF 16
ENDMDL
MODEL 6
REMARK VINA RESULT:      -9.3      2.317      7.471
REMARK  16 active torsions:
REMARK  status: ('A' for Active; 'I' for Inactive)
REMARK    1  A    between atoms: C_6  and  C_7 
REMARK    2  A    between atoms: C_7  and  C_8 
REMARK    3  A    between atoms: C_8  and  C_9 
REMARK    4  A    between atoms: C_9  and  O_11 
REMARK    5  A    between atoms: C_16  and  C_17 
REMARK    6  A    between atoms: C_17  and  C_18 
REMARK    7  A    between atoms: C_18  and  C_19 
REMARK    8  A    between atoms: C_19  and  O_21 
REMARK    9  A    between atoms: C_28  and  C_29 
REMARK   10  A    between atoms: C_29  and  C_30 
REMARK   11  A    between atoms: C_30  and  C_31 
REMARK   12  A    between atoms: C_31  and  O_33 
REMARK   13  A    between atoms: C_42  and  C_43 
REMARK   14  A    between atoms: C_43  and  C_44 
REMARK   15  A    between atoms: C_44  and  C_45 
REMARK   16  A    between atoms: C_45  and  O_47 
ROOT
HETATM    1  C   UNK     0       9.267  -4.664  16.401  0.00  0.00     0.051 C 
HETATM    2  C   UNK     0      10.466  -4.291  15.553  0.00  0.00    -0.031 A 
HETATM    3  C   UNK     0      11.057  -4.988  14.511  0.00  0.00     0.021 A 
HETATM    4  N   UNK     0      12.126  -4.289  14.063  0.00  0.00    -0.361 N 
HETATM    5  C   UNK     0      12.225  -3.158  14.791  0.00  0.00     0.022 A 
HETATM    6  C   UNK     0      11.203  -3.128  15.734  0.00  0.00    -0.027 A 
HETATM    7  C   UNK     0      13.170  -2.007  14.639  0.00  0.00     0.115 C 
HETATM    8  C   UNK     0      13.441  -1.530  13.223  0.00  0.00     0.021 A 
HETATM    9  N   UNK     0      12.595  -1.478  12.182  0.00  0.00    -0.361 N 
HETATM   10  C   UNK     0      13.290  -1.075  11.097  0.00  0.00     0.022 A 
HETATM   11  C   UNK     0      14.618  -0.853  11.451  0.00  0.00    -0.027 A 
HETATM   12  C   UNK     0      14.719  -1.137  12.789  0.00  0.00    -0.031 A 
HETATM   13  C   UNK     0      15.984  -1.032  13.611  0.00  0.00     0.051 C 
HETATM   14  C   UNK     0      12.746  -0.936   9.678  0.00  0.00     0.115 C 
HETATM   15  C   UNK     0      12.219  -2.235   9.090  0.00  0.00     0.021 A 
HETATM   16  N   UNK     0      11.241  -3.021   9.578  0.00  0.00    -0.361 N 
HETATM   17  C   UNK     0      11.126  -4.106   8.810  0.00  0.00     0.022 A 
HETATM   18  C   UNK     0      12.068  -4.019   7.765  0.00  0.00    -0.027 A 
HETATM   19  C   UNK     0      12.745  -2.842   7.952  0.00  0.00    -0.031 A 
HETATM   20  C   UNK     0      13.833  -2.338   7.021  0.00  0.00     0.051 C 
HETATM   21  C   UNK     0      10.234  -5.317   8.965  0.00  0.00     0.115 C 
HETATM   22  C   UNK     0       9.920  -5.776  10.370  0.00  0.00     0.022 A 
HETATM   23  N   UNK     0      10.741  -5.835  11.427  0.00  0.00    -0.361 N 
HETATM   24  C   UNK     0      10.011  -6.163  12.512  0.00  0.00     0.021 A 
HETATM   25  C   UNK     0       8.690  -6.329  12.143  0.00  0.00    -0.031 A 
HETATM   26  C   UNK     0       7.507  -6.736  12.996  0.00  0.00     0.051 C 
HETATM   27  C   UNK     0       8.607  -6.088  10.777  0.00  0.00    -0.027 A 
HETATM   28  C   UNK     0      10.481  -6.259  13.953  0.00  0.00     0.115 C 
HETATM   29  H   UNK     0      12.828  -4.619  13.262  0.00  0.00     0.165 HD
HETATM   30  H   UNK     0      11.496  -1.676  12.220  0.00  0.00     0.165 HD
HETATM   31  H   UNK     0      10.585  -2.783  10.456  0.00  0.00     0.165 HD
HETATM   32  H   UNK     0      11.852  -5.688  11.409  0.00  0.00     0.165 HD
ENDROOT
BRANCH   6  33
HETATM   33  C   UNK     0      10.880  -2.094  16.783  0.00  0.00     0.051 C 
BRANCH  33  34
HETATM   34  C   UNK     0      10.011  -1.002  16.206  0.00  0.00     0.114 C 
BRANCH  34  35
HETATM   35  C   UNK     0      10.690   0.298  16.476  0.00  0.00     0.139 C 
HETATM   36  O   UNK     0      10.597   0.842  17.615  0.00  0.00    -0.650 OA
BRANCH  35  37
HETATM   37  O   UNK     0      11.444   0.962  15.516  0.00  0.00    -0.776 OA
HETATM   38  H   UNK     0      11.201   1.884  15.189  0.00  0.00     0.167 HD
ENDBRANCH  35  37
ENDBRANCH  34  35
ENDBRANCH  33  34
ENDBRANCH   6  33
BRANCH  27  39
HETATM   39  C   UNK     0       7.346  -6.241  10.002  0.00  0.00     0.051 C 
BRANCH  39  40
HETATM   40  C   UNK     0       7.014  -7.563   9.471  0.00  0.00     0.114 C 
BRANCH  40  41
HETATM   41  C   UNK     0       7.952  -8.338   8.690  0.00  0.00     0.139 C 
HETATM   42  O   UNK     0       8.062  -8.241   7.461  0.00  0.00    -0.650 OA
BRANCH  41  43
HETATM   43  O   UNK     0       8.803  -9.266   9.354  0.00  0.00    -0.776 OA
HETATM   44  H   UNK     0       8.315  -9.957   9.912  0.00  0.00     0.167 HD
ENDBRANCH  41  43
ENDBRANCH  40  41
ENDBRANCH  39  40
ENDBRANCH  27  39
BRANCH  11  45
HETATM   45  C   UNK     0      15.758  -0.390  10.585  0.00  0.00     0.051 C 
BRANCH  45  46
HETATM   46  C   UNK     0      16.467  -1.488   9.877  0.00  0.00     0.114 C 
BRANCH  46  47
HETATM   47  C   UNK     0      17.306  -0.860   8.817  0.00  0.00     0.139 C 
HETATM   48  O   UNK     0      16.752  -0.147   7.968  0.00  0.00    -0.650 OA
BRANCH  47  49
HETATM   49  O   UNK     0      18.661  -1.068   8.779  0.00  0.00    -0.776 OA
HETATM   50  H   UNK     0      19.238  -0.760   7.987  0.00  0.00     0.167 HD
ENDBRANCH  47  49
ENDBRANCH  46  47
ENDBRANCH  45  46
ENDBRANCH  11  45
BRANCH  18  51
HETATM   51  C   UNK     0      12.295  -4.994   6.639  0.00  0.00     0.051 C 
BRANCH  51  52
HETATM   52  C   UNK     0      11.177  -4.753   5.635  0.00  0.00     0.114 C 
BRANCH  52  53
HETATM   53  C   UNK     0      11.674  -4.112   4.402  0.00  0.00     0.139 C 
HETATM   54  O   UNK     0      12.889  -4.114   4.147  0.00  0.00    -0.650 OA
BRANCH  53  55
HETATM   55  O   UNK     0      10.787  -3.511   3.543  0.00  0.00    -0.776 OA
HETATM   56  H   UNK     0      10.200  -3.975   2.891  0.00  0.00     0.167 HD
ENDBRANCH  53  55
ENDBRANCH  52  53
ENDBRANCH  51  52
ENDBRANCH  18  51
TORSDOF 16
ENDMDL
MODEL 7
REMARK VINA RESULT:      -9.1      2.782      9.394
REMARK  16 active torsions:
REMARK  status: ('A' for Active; 'I' for Inactive)
REMARK    1  A    between atoms: C_6  and  C_7 
REMARK    2  A    between atoms: C_7  and  C_8 
REMARK    3  A    between atoms: C_8  and  C_9 
REMARK    4  A    between atoms: C_9  and  O_11 
REMARK    5  A    between atoms: C_16  and  C_17 
REMARK    6  A    between atoms: C_17  and  C_18 
REMARK    7  A    between atoms: C_18  and  C_19 
REMARK    8  A    between atoms: C_19  and  O_21 
REMARK    9  A    between atoms: C_28  and  C_29 
REMARK   10  A    between atoms: C_29  and  C_30 
REMARK   11  A    between atoms: C_30  and  C_31 
REMARK   12  A    between atoms: C_31  and  O_33 
REMARK   13  A    between atoms: C_42  and  C_43 
REMARK   14  A    between atoms: C_43  and  C_44 
REMARK   15  A    between atoms: C_44  and  C_45 
REMARK   16  A    between atoms: C_45  and  O_47 
ROOT
HETATM    1  C   UNK     0      14.854   0.077  10.706  0.00  0.00     0.051 C 
HETATM    2  C   UNK     0      13.782  -0.581  11.552  0.00  0.00    -0.031 A 
HETATM    3  C   UNK     0      12.484  -0.927  11.213  0.00  0.00     0.021 A 
HETATM    4  N   UNK     0      11.874  -1.465  12.297  0.00  0.00    -0.361 N 
HETATM    5  C   UNK     0      12.759  -1.476  13.315  0.00  0.00     0.022 A 
HETATM    6  C   UNK     0      13.962  -0.927  12.884  0.00  0.00    -0.027 A 
HETATM    7  C   UNK     0      12.618  -2.046  14.692  0.00  0.00     0.115 C 
HETATM    8  C   UNK     0      11.948  -3.405  14.802  0.00  0.00     0.021 A 
HETATM    9  N   UNK     0      12.023  -4.445  13.957  0.00  0.00    -0.361 N 
HETATM   10  C   UNK     0      11.193  -5.410  14.406  0.00  0.00     0.022 A 
HETATM   11  C   UNK     0      10.573  -4.984  15.577  0.00  0.00    -0.027 A 
HETATM   12  C   UNK     0      11.044  -3.721  15.832  0.00  0.00    -0.031 A 
HETATM   13  C   UNK     0      10.649  -2.863  17.012  0.00  0.00     0.051 C 
HETATM   14  C   UNK     0      10.911  -6.745  13.723  0.00  0.00     0.115 C 
HETATM   15  C   UNK     0      10.307  -6.612  12.334  0.00  0.00     0.021 A 
HETATM   16  N   UNK     0      10.830  -5.976  11.269  0.00  0.00    -0.361 N 
HETATM   17  C   UNK     0       9.960  -6.026  10.258  0.00  0.00     0.022 A 
HETATM   18  C   UNK     0       8.820  -6.737  10.681  0.00  0.00    -0.027 A 
HETATM   19  C   UNK     0       9.050  -7.099  11.983  0.00  0.00    -0.031 A 
HETATM   20  C   UNK     0       8.080  -7.918  12.816  0.00  0.00     0.051 C 
HETATM   21  C   UNK     0      10.036  -5.410   8.880  0.00  0.00     0.115 C 
HETATM   22  C   UNK     0      10.738  -4.079   8.748  0.00  0.00     0.022 A 
HETATM   23  N   UNK     0      10.685  -3.027   9.576  0.00  0.00    -0.361 N 
HETATM   24  C   UNK     0      11.578  -2.110   9.153  0.00  0.00     0.021 A 
HETATM   25  C   UNK     0      12.214  -2.577   8.019  0.00  0.00    -0.031 A 
HETATM   26  C   UNK     0      13.260  -1.895   7.162  0.00  0.00     0.051 C 
HETATM   27  C   UNK     0      11.693  -3.836   7.740  0.00  0.00    -0.027 A 
HETATM   28  C   UNK     0      11.945  -0.794   9.817  0.00  0.00     0.115 C 
HETATM   29  H   UNK     0      10.811  -1.796  12.345  0.00  0.00     0.165 HD
HETATM   30  H   UNK     0      12.699  -4.521  13.070  0.00  0.00     0.165 HD
HETATM   31  H   UNK     0      11.855  -5.524  11.213  0.00  0.00     0.165 HD
HETATM   32  H   UNK     0       9.985  -2.904  10.443  0.00  0.00     0.165 HD
ENDROOT
BRANCH   6  33
HETATM   33  C   UNK     0      15.252  -0.709  13.634  0.00  0.00     0.051 C 
BRANCH  33  34
HETATM   34  C   UNK     0      15.986  -2.014  13.828  0.00  0.00     0.114 C 
BRANCH  34  35
HETATM   35  C   UNK     0      16.694  -2.322  12.553  0.00  0.00     0.139 C 
HETATM   36  O   UNK     0      16.334  -3.309  11.847  0.00  0.00    -0.650 OA
BRANCH  35  37
HETATM   37  O   UNK     0      17.757  -1.561  12.082  0.00  0.00    -0.776 OA
HETATM   38  H   UNK     0      17.841  -1.301  11.113  0.00  0.00     0.167 HD
ENDBRANCH  35  37
ENDBRANCH  34  35
ENDBRANCH  33  34
ENDBRANCH   6  33
BRANCH  27  39
HETATM   39  C   UNK     0      12.086  -4.629   6.544  0.00  0.00     0.051 C 
BRANCH  39  40
HETATM   40  C   UNK     0      11.265  -4.519   5.338  0.00  0.00     0.114 C 
BRANCH  40  41
HETATM   41  C   UNK     0      11.696  -3.771   4.178  0.00  0.00     0.139 C 
HETATM   42  O   UNK     0      12.866  -3.409   3.994  0.00  0.00    -0.650 OA
BRANCH  41  43
HETATM   43  O   UNK     0      10.738  -3.424   3.184  0.00  0.00    -0.776 OA
HETATM   44  H   UNK     0       9.811  -3.800   3.347  0.00  0.00     0.167 HD
ENDBRANCH  41  43
ENDBRANCH  40  41
ENDBRANCH  39  40
ENDBRANCH  27  39
BRANCH  11  45
HETATM   45  C   UNK     0       9.579  -5.717  16.437  0.00  0.00     0.051 C 
BRANCH  45  46
HETATM   46  C   UNK     0      10.127  -6.927  17.099  0.00  0.00     0.114 C 
BRANCH  46  47
HETATM   47  C   UNK     0       9.239  -8.069  16.738  0.00  0.00     0.139 C 
HETATM   48  O   UNK     0       8.056  -7.833  16.454  0.00  0.00    -0.650 OA
BRANCH  47  49
HETATM   49  O   UNK     0       9.719  -9.354  16.719  0.00  0.00    -0.776 OA
HETATM   50  H   UNK     0      10.274  -9.718  15.935  0.00  0.00     0.167 HD
ENDBRANCH  47  49
ENDBRANCH  46  47
ENDBRANCH  45  46
ENDBRANCH  11  45
BRANCH  18  51
HETATM   51  C   UNK     0       7.586  -7.070   9.883  0.00  0.00     0.051 C 
BRANCH  51  52
HETATM   52  C   UNK     0       7.713  -8.536   9.496  0.00  0.00     0.114 C 
BRANCH  52  53
HETATM   53  C   UNK     0       8.683  -8.734   8.401  0.00  0.00     0.139 C 
HETATM   54  O   UNK     0       9.738  -9.354   8.610  0.00  0.00    -0.650 OA
BRANCH  53  55
HETATM   55  O   UNK     0       8.413  -8.226   7.154  0.00  0.00    -0.776 OA
HETATM   56  H   UNK     0       9.043  -7.709   6.585  0.00  0.00     0.167 HD
ENDBRANCH  53  55
ENDBRANCH  52  53
ENDBRANCH  51  52
ENDBRANCH  18  51
TORSDOF 16
ENDMDL
MODEL 8
REMARK VINA RESULT:      -9.1     31.867     33.865
REMARK  16 active torsions:
REMARK  status: ('A' for Active; 'I' for Inactive)
REMARK    1  A    between atoms: C_6  and  C_7 
REMARK    2  A    between atoms: C_7  and  C_8 
REMARK    3  A    between atoms: C_8  and  C_9 
REMARK    4  A    between atoms: C_9  and  O_11 
REMARK    5  A    between atoms: C_16  and  C_17 
REMARK    6  A    between atoms: C_17  and  C_18 
REMARK    7  A    between atoms: C_18  and  C_19 
REMARK    8  A    between atoms: C_19  and  O_21 
REMARK    9  A    between atoms: C_28  and  C_29 
REMARK   10  A    between atoms: C_29  and  C_30 
REMARK   11  A    between atoms: C_30  and  C_31 
REMARK   12  A    between atoms: C_31  and  O_33 
REMARK   13  A    between atoms: C_42  and  C_43 
REMARK   14  A    between atoms: C_43  and  C_44 
REMARK   15  A    between atoms: C_44  and  C_45 
REMARK   16  A    between atoms: C_45  and  O_47 
ROOT
HETATM    1  C   UNK     0     -18.310  -4.743  -9.929  0.00  0.00     0.051 C 
HETATM    2  C   UNK     0     -17.459  -3.593 -10.429  0.00  0.00    -0.031 A 
HETATM    3  C   UNK     0     -17.524  -2.246 -10.108  0.00  0.00     0.021 A 
HETATM    4  N   UNK     0     -16.586  -1.577 -10.819  0.00  0.00    -0.361 N 
HETATM    5  C   UNK     0     -15.919  -2.469 -11.581  0.00  0.00     0.022 A 
HETATM    6  C   UNK     0     -16.442  -3.740 -11.363  0.00  0.00    -0.027 A 
HETATM    7  C   UNK     0     -14.735  -2.262 -12.473  0.00  0.00     0.115 C 
HETATM    8  C   UNK     0     -13.629  -1.368 -11.941  0.00  0.00     0.021 A 
HETATM    9  N   UNK     0     -13.191  -1.240 -10.679  0.00  0.00    -0.361 N 
HETATM   10  C   UNK     0     -12.259  -0.264 -10.656  0.00  0.00     0.022 A 
HETATM   11  C   UNK     0     -12.085   0.244 -11.940  0.00  0.00    -0.027 A 
HETATM   12  C   UNK     0     -12.945  -0.447 -12.755  0.00  0.00    -0.031 A 
HETATM   13  C   UNK     0     -13.099  -0.235 -14.244  0.00  0.00     0.051 C 
HETATM   14  C   UNK     0     -11.536   0.263  -9.420  0.00  0.00     0.115 C 
HETATM   15  C   UNK     0     -12.462   0.866  -8.375  0.00  0.00     0.021 A 
HETATM   16  N   UNK     0     -13.484   0.264  -7.739  0.00  0.00    -0.361 N 
HETATM   17  C   UNK     0     -14.093   1.152  -6.951  0.00  0.00     0.022 A 
HETATM   18  C   UNK     0     -13.431   2.390  -7.072  0.00  0.00    -0.027 A 
HETATM   19  C   UNK     0     -12.410   2.196  -7.966  0.00  0.00    -0.031 A 
HETATM   20  C   UNK     0     -11.418   3.275  -8.361  0.00  0.00     0.051 C 
HETATM   21  C   UNK     0     -15.326   1.002  -6.089  0.00  0.00     0.115 C 
HETATM   22  C   UNK     0     -16.416   0.080  -6.584  0.00  0.00     0.022 A 
HETATM   23  N   UNK     0     -16.870  -0.070  -7.835  0.00  0.00    -0.361 N 
HETATM   24  C   UNK     0     -17.741  -1.100  -7.848  0.00  0.00     0.021 A 
HETATM   25  C   UNK     0     -17.858  -1.618  -6.573  0.00  0.00    -0.031 A 
HETATM   26  C   UNK     0     -18.739  -2.747  -6.079  0.00  0.00     0.051 C 
HETATM   27  C   UNK     0     -17.020  -0.879  -5.746  0.00  0.00    -0.027 A 
HETATM   28  C   UNK     0     -18.445  -1.707  -9.050  0.00  0.00     0.115 C 
HETATM   29  H   UNK     0     -16.429  -0.474 -10.809  0.00  0.00     0.165 HD
HETATM   30  H   UNK     0     -13.502  -1.871  -9.811  0.00  0.00     0.165 HD
HETATM   31  H   UNK     0     -13.753  -0.822  -7.810  0.00  0.00     0.165 HD
HETATM   32  H   UNK     0     -16.613   0.577  -8.713  0.00  0.00     0.165 HD
ENDROOT
BRANCH   6  33
HETATM   33  C   UNK     0     -16.054  -5.065 -11.969  0.00  0.00     0.051 C 
BRANCH  33  34
HETATM   34  C   UNK     0     -15.135  -5.828 -11.044  0.00  0.00     0.114 C 
BRANCH  34  35
HETATM   35  C   UNK     0     -13.735  -5.528 -11.460  0.00  0.00     0.139 C 
HETATM   36  O   UNK     0     -12.974  -4.862 -10.699  0.00  0.00    -0.650 OA
BRANCH  35  37
HETATM   37  O   UNK     0     -13.205  -5.956 -12.671  0.00  0.00    -0.776 OA
HETATM   38  H   UNK     0     -12.429  -5.487 -13.110  0.00  0.00     0.167 HD
ENDBRANCH  35  37
ENDBRANCH  34  35
ENDBRANCH  33  34
ENDBRANCH   6  33
BRANCH  27  39
HETATM   39  C   UNK     0     -16.930  -1.099  -4.277  0.00  0.00     0.051 C 
BRANCH  39  40
HETATM   40  C   UNK     0     -17.538  -0.109  -3.388  0.00  0.00     0.114 C 
BRANCH  40  41
HETATM   41  C   UNK     0     -18.921  -0.192  -2.973  0.00  0.00     0.139 C 
HETATM   42  O   UNK     0     -19.378  -1.129  -2.305  0.00  0.00    -0.650 OA
BRANCH  41  43
HETATM   43  O   UNK     0     -19.818   0.850  -3.344  0.00  0.00    -0.776 OA
HETATM   44  H   UNK     0     -20.550   0.565  -3.983  0.00  0.00     0.167 HD
ENDBRANCH  41  43
ENDBRANCH  40  41
ENDBRANCH  39  40
ENDBRANCH  27  39
BRANCH  11  45
HETATM   45  C   UNK     0     -11.153   1.331 -12.405  0.00  0.00     0.051 C 
BRANCH  45  46
HETATM   46  C   UNK     0      -9.813   0.844 -12.821  0.00  0.00     0.114 C 
BRANCH  46  47
HETATM   47  C   UNK     0      -9.261   1.839 -13.785  0.00  0.00     0.139 C 
HETATM   48  O   UNK     0     -10.053   2.529 -14.443  0.00  0.00    -0.650 OA
BRANCH  47  49
HETATM   49  O   UNK     0      -7.907   1.989 -13.942  0.00  0.00    -0.776 OA
HETATM   50  H   UNK     0      -7.454   1.927 -14.861  0.00  0.00     0.167 HD
ENDBRANCH  47  49
ENDBRANCH  46  47
ENDBRANCH  45  46
ENDBRANCH  11  45
BRANCH  18  51
HETATM   51  C   UNK     0     -13.740   3.680  -6.359  0.00  0.00     0.051 C 
BRANCH  51  52
HETATM   52  C   UNK     0     -14.593   4.502  -7.315  0.00  0.00     0.114 C 
BRANCH  52  53
HETATM   53  C   UNK     0     -14.935   5.821  -6.750  0.00  0.00     0.139 C 
HETATM   54  O   UNK     0     -14.127   6.761  -6.832  0.00  0.00    -0.650 OA
BRANCH  53  55
HETATM   55  O   UNK     0     -16.149   6.002  -6.132  0.00  0.00    -0.776 OA
HETATM   56  H   UNK     0     -16.746   5.284  -5.798  0.00  0.00     0.167 HD
ENDBRANCH  53  55
ENDBRANCH  52  53
ENDBRANCH  51  52
ENDBRANCH  18  51
TORSDOF 16
ENDMDL
MODEL 9
REMARK VINA RESULT:      -9.0     30.579     34.505
REMARK  16 active torsions:
REMARK  status: ('A' for Active; 'I' for Inactive)
REMARK    1  A    between atoms: C_6  and  C_7 
REMARK    2  A    between atoms: C_7  and  C_8 
REMARK    3  A    between atoms: C_8  and  C_9 
REMARK    4  A    between atoms: C_9  and  O_11 
REMARK    5  A    between atoms: C_16  and  C_17 
REMARK    6  A    between atoms: C_17  and  C_18 
REMARK    7  A    between atoms: C_18  and  C_19 
REMARK    8  A    between atoms: C_19  and  O_21 
REMARK    9  A    between atoms: C_28  and  C_29 
REMARK   10  A    between atoms: C_29  and  C_30 
REMARK   11  A    between atoms: C_30  and  C_31 
REMARK   12  A    between atoms: C_31  and  O_33 
REMARK   13  A    between atoms: C_42  and  C_43 
REMARK   14  A    between atoms: C_43  and  C_44 
REMARK   15  A    between atoms: C_44  and  C_45 
REMARK   16  A    between atoms: C_45  and  O_47 
ROOT
HETATM    1  C   UNK     0     -10.202   0.313 -13.270  0.00  0.00     0.051 C 
HETATM    2  C   UNK     0     -11.260   0.551 -12.212  0.00  0.00    -0.031 A 
HETATM    3  C   UNK     0     -12.637   0.415 -12.298  0.00  0.00     0.021 A 
HETATM    4  N   UNK     0     -13.190   0.766 -11.113  0.00  0.00    -0.361 N 
HETATM    5  C   UNK     0     -12.195   1.115 -10.271  0.00  0.00     0.022 A 
HETATM    6  C   UNK     0     -10.974   0.994 -10.927  0.00  0.00    -0.027 A 
HETATM    7  C   UNK     0     -12.260   1.489  -8.823  0.00  0.00     0.115 C 
HETATM    8  C   UNK     0     -13.180   0.659  -7.945  0.00  0.00     0.021 A 
HETATM    9  N   UNK     0     -13.444  -0.655  -8.018  0.00  0.00    -0.361 N 
HETATM   10  C   UNK     0     -14.389  -0.944  -7.098  0.00  0.00     0.022 A 
HETATM   11  C   UNK     0     -14.736   0.213  -6.407  0.00  0.00    -0.027 A 
HETATM   12  C   UNK     0     -13.978   1.227  -6.936  0.00  0.00    -0.031 A 
HETATM   13  C   UNK     0     -14.015   2.671  -6.488  0.00  0.00     0.051 C 
HETATM   14  C   UNK     0     -15.038  -2.306  -6.871  0.00  0.00     0.115 C 
HETATM   15  C   UNK     0     -15.787  -2.841  -8.081  0.00  0.00     0.021 A 
HETATM   16  N   UNK     0     -15.295  -3.084  -9.310  0.00  0.00    -0.361 N 
HETATM   17  C   UNK     0     -16.287  -3.480 -10.110  0.00  0.00     0.022 A 
HETATM   18  C   UNK     0     -17.482  -3.506  -9.363  0.00  0.00    -0.027 A 
HETATM   19  C   UNK     0     -17.155  -3.105  -8.094  0.00  0.00    -0.031 A 
HETATM   20  C   UNK     0     -18.151  -3.026  -6.951  0.00  0.00     0.051 C 
HETATM   21  C   UNK     0     -16.275  -3.803 -11.587  0.00  0.00     0.115 C 
HETATM   22  C   UNK     0     -15.333  -3.014 -12.465  0.00  0.00     0.022 A 
HETATM   23  N   UNK     0     -15.047  -1.707 -12.413  0.00  0.00    -0.361 N 
HETATM   24  C   UNK     0     -14.049  -1.456 -13.283  0.00  0.00     0.021 A 
HETATM   25  C   UNK     0     -13.690  -2.629 -13.919  0.00  0.00    -0.031 A 
HETATM   26  C   UNK     0     -12.653  -2.847 -15.002  0.00  0.00     0.051 C 
HETATM   27  C   UNK     0     -14.498  -3.640 -13.413  0.00  0.00    -0.027 A 
HETATM   28  C   UNK     0     -13.324  -0.141 -13.513  0.00  0.00     0.115 C 
HETATM   29  H   UNK     0     -14.281   0.803 -10.892  0.00  0.00     0.165 HD
HETATM   30  H   UNK     0     -12.930  -1.390  -8.684  0.00  0.00     0.165 HD
HETATM   31  H   UNK     0     -14.216  -3.020  -9.608  0.00  0.00     0.165 HD
HETATM   32  H   UNK     0     -15.578  -0.939 -11.791  0.00  0.00     0.165 HD
ENDROOT
BRANCH   6  33
HETATM   33  C   UNK     0      -9.576   1.267 -10.433  0.00  0.00     0.051 C 
BRANCH  33  34
HETATM   34  C   UNK     0      -9.085   2.606 -10.931  0.00  0.00     0.114 C 
BRANCH  34  35
HETATM   35  C   UNK     0      -8.677   3.403  -9.739  0.00  0.00     0.139 C 
HETATM   36  O   UNK     0      -7.511   3.890  -9.667  0.00  0.00    -0.650 OA
BRANCH  35  37
HETATM   37  O   UNK     0      -9.534   3.650  -8.674  0.00  0.00    -0.776 OA
HETATM   38  H   UNK     0      -9.942   4.557  -8.515  0.00  0.00     0.167 HD
ENDBRANCH  35  37
ENDBRANCH  34  35
ENDBRANCH  33  34
ENDBRANCH   6  33
BRANCH  27  39
HETATM   39  C   UNK     0     -14.451  -5.041 -13.912  0.00  0.00     0.051 C 
BRANCH  39  40
HETATM   40  C   UNK     0     -13.617  -6.006 -13.195  0.00  0.00     0.114 C 
BRANCH  40  41
HETATM   41  C   UNK     0     -14.048  -6.633 -11.965  0.00  0.00     0.139 C 
HETATM   42  O   UNK     0     -14.682  -7.696 -11.926  0.00  0.00    -0.650 OA
BRANCH  41  43
HETATM   43  O   UNK     0     -13.736  -6.008 -10.725  0.00  0.00    -0.776 OA
HETATM   44  H   UNK     0     -12.756  -5.781 -10.605  0.00  0.00     0.167 HD
ENDBRANCH  41  43
ENDBRANCH  40  41
ENDBRANCH  39  40
ENDBRANCH  27  39
BRANCH  11  45
HETATM   45  C   UNK     0     -15.733   0.382  -5.293  0.00  0.00     0.051 C 
BRANCH  45  46
HETATM   46  C   UNK     0     -15.220  -0.011  -3.956  0.00  0.00     0.114 C 
BRANCH  46  47
HETATM   47  C   UNK     0     -14.884   1.244  -3.225  0.00  0.00     0.139 C 
HETATM   48  O   UNK     0     -13.697   1.473  -2.955  0.00  0.00    -0.650 OA
BRANCH  47  49
HETATM   49  O   UNK     0     -15.867   2.128  -2.858  0.00  0.00    -0.776 OA
HETATM   50  H   UNK     0     -15.778   3.139  -3.014  0.00  0.00     0.167 HD
ENDBRANCH  47  49
ENDBRANCH  46  47
ENDBRANCH  45  46
ENDBRANCH  11  45
BRANCH  18  51
HETATM   51  C   UNK     0     -18.857  -3.911  -9.829  0.00  0.00     0.051 C 
BRANCH  51  52
HETATM   52  C   UNK     0     -19.207  -2.981 -10.981  0.00  0.00     0.114 C 
BRANCH  52  53
HETATM   53  C   UNK     0     -19.295  -1.574 -10.545  0.00  0.00     0.139 C 
HETATM   54  O   UNK     0     -18.399  -0.772 -10.852  0.00  0.00    -0.650 OA
BRANCH  53  55
HETATM   55  O   UNK     0     -20.370  -1.160  -9.797  0.00  0.00    -0.776 OA
HETATM   56  H   UNK     0     -21.186  -1.691  -9.605  0.00  0.00     0.167 HD
ENDBRANCH  53  55
ENDBRANCH  52  53
ENDBRANCH  51  52
ENDBRANCH  18  51
TORSDOF 16
ENDMDL
MODEL 10
REMARK VINA RESULT:      -8.9     30.819     33.295
REMARK  16 active torsions:
REMARK  status: ('A' for Active; 'I' for Inactive)
REMARK    1  A    between atoms: C_6  and  C_7 
REMARK    2  A    between atoms: C_7  and  C_8 
REMARK    3  A    between atoms: C_8  and  C_9 
REMARK    4  A    between atoms: C_9  and  O_11 
REMARK    5  A    between atoms: C_16  and  C_17 
REMARK    6  A    between atoms: C_17  and  C_18 
REMARK    7  A    between atoms: C_18  and  C_19 
REMARK    8  A    between atoms: C_19  and  O_21 
REMARK    9  A    between atoms: C_28  and  C_29 
REMARK   10  A    between atoms: C_29  and  C_30 
REMARK   11  A    between atoms: C_30  and  C_31 
REMARK   12  A    between atoms: C_31  and  O_33 
REMARK   13  A    between atoms: C_42  and  C_43 
REMARK   14  A    between atoms: C_43  and  C_44 
REMARK   15  A    between atoms: C_44  and  C_45 
REMARK   16  A    between atoms: C_45  and  O_47 
ROOT
HETATM    1  C   UNK     0     -18.171  -4.941  -5.955  0.00  0.00     0.051 C 
HETATM    2  C   UNK     0     -17.203  -3.852  -5.540  0.00  0.00    -0.031 A 
HETATM    3  C   UNK     0     -15.840  -3.752  -5.769  0.00  0.00     0.021 A 
HETATM    4  N   UNK     0     -15.376  -2.621  -5.187  0.00  0.00    -0.361 N 
HETATM    5  C   UNK     0     -16.416  -1.993  -4.600  0.00  0.00     0.022 A 
HETATM    6  C   UNK     0     -17.574  -2.738  -4.799  0.00  0.00    -0.027 A 
HETATM    7  C   UNK     0     -16.459  -0.667  -3.907  0.00  0.00     0.115 C 
HETATM    8  C   UNK     0     -15.696   0.470  -4.564  0.00  0.00     0.021 A 
HETATM    9  N   UNK     0     -15.532   0.721  -5.872  0.00  0.00    -0.361 N 
HETATM   10  C   UNK     0     -14.705   1.781  -5.995  0.00  0.00     0.022 A 
HETATM   11  C   UNK     0     -14.334   2.231  -4.732  0.00  0.00    -0.027 A 
HETATM   12  C   UNK     0     -14.955   1.410  -3.825  0.00  0.00    -0.031 A 
HETATM   13  C   UNK     0     -14.846   1.527  -2.322  0.00  0.00     0.051 C 
HETATM   14  C   UNK     0     -14.191   2.376  -7.303  0.00  0.00     0.115 C 
HETATM   15  C   UNK     0     -13.376   1.406  -8.143  0.00  0.00     0.021 A 
HETATM   16  N   UNK     0     -13.766   0.214  -8.633  0.00  0.00    -0.361 N 
HETATM   17  C   UNK     0     -12.737  -0.362  -9.257  0.00  0.00     0.022 A 
HETATM   18  C   UNK     0     -11.624   0.499  -9.178  0.00  0.00    -0.027 A 
HETATM   19  C   UNK     0     -12.038   1.603  -8.479  0.00  0.00    -0.031 A 
HETATM   20  C   UNK     0     -11.153   2.803  -8.195  0.00  0.00     0.051 C 
HETATM   21  C   UNK     0     -12.633  -1.722  -9.908  0.00  0.00     0.115 C 
HETATM   22  C   UNK     0     -13.422  -2.853  -9.291  0.00  0.00     0.022 A 
HETATM   23  N   UNK     0     -13.606  -3.125  -7.992  0.00  0.00    -0.361 N 
HETATM   24  C   UNK     0     -14.494  -4.134  -7.892  0.00  0.00     0.021 A 
HETATM   25  C   UNK     0     -14.883  -4.530  -9.158  0.00  0.00    -0.031 A 
HETATM   26  C   UNK     0     -15.826  -5.644  -9.560  0.00  0.00     0.051 C 
HETATM   27  C   UNK     0     -14.210  -3.725 -10.070  0.00  0.00    -0.027 A 
HETATM   28  C   UNK     0     -15.086  -4.729  -6.627  0.00  0.00     0.115 C 
HETATM   29  H   UNK     0     -14.311  -2.294  -5.161  0.00  0.00     0.165 HD
HETATM   30  H   UNK     0     -16.038   0.182  -6.711  0.00  0.00     0.165 HD
HETATM   31  H   UNK     0     -14.803  -0.208  -8.579  0.00  0.00     0.165 HD
HETATM   32  H   UNK     0     -13.077  -2.634  -7.134  0.00  0.00     0.165 HD
ENDROOT
BRANCH   6  33
HETATM   33  C   UNK     0     -18.986  -2.475  -4.342  0.00  0.00     0.051 C 
BRANCH  33  34
HETATM   34  C   UNK     0     -19.631  -1.402  -5.186  0.00  0.00     0.114 C 
BRANCH  34  35
HETATM   35  C   UNK     0     -20.601  -0.674  -4.319  0.00  0.00     0.139 C 
HETATM   36  O   UNK     0     -20.991   0.488  -4.635  0.00  0.00    -0.650 OA
BRANCH  35  37
HETATM   37  O   UNK     0     -21.117  -1.220  -3.150  0.00  0.00    -0.776 OA
HETATM   38  H   UNK     0     -22.060  -1.038  -2.846  0.00  0.00     0.167 HD
ENDBRANCH  35  37
ENDBRANCH  34  35
ENDBRANCH  33  34
ENDBRANCH   6  33
BRANCH  27  39
HETATM   39  C   UNK     0     -14.321  -3.902 -11.543  0.00  0.00     0.051 C 
BRANCH  39  40
HETATM   40  C   UNK     0     -13.474  -4.906 -12.187  0.00  0.00     0.114 C 
BRANCH  40  41
HETATM   41  C   UNK     0     -12.592  -4.581 -13.284  0.00  0.00     0.139 C 
HETATM   42  O   UNK     0     -11.663  -5.312 -13.654  0.00  0.00    -0.650 OA
BRANCH  41  43
HETATM   43  O   UNK     0     -12.786  -3.360 -13.989  0.00  0.00    -0.776 OA
HETATM   44  H   UNK     0     -11.936  -2.946 -14.353  0.00  0.00     0.167 HD
ENDBRANCH  41  43
ENDBRANCH  40  41
ENDBRANCH  39  40
ENDBRANCH  27  39
BRANCH  11  45
HETATM   45  C   UNK     0     -13.438   3.384  -4.368  0.00  0.00     0.051 C 
BRANCH  45  46
HETATM   46  C   UNK     0     -14.012   4.719  -4.676  0.00  0.00     0.114 C 
BRANCH  46  47
HETATM   47  C   UNK     0     -13.066   5.404  -5.602  0.00  0.00     0.139 C 
HETATM   48  O   UNK     0     -13.495   5.818  -6.688  0.00  0.00    -0.650 OA
BRANCH  47  49
HETATM   49  O   UNK     0     -11.747   5.572  -5.262  0.00  0.00    -0.776 OA
HETATM   50  H   UNK     0     -11.027   4.887  -5.517  0.00  0.00     0.167 HD
ENDBRANCH  47  49
ENDBRANCH  46  47
ENDBRANCH  45  46
ENDBRANCH  11  45
BRANCH  18  51
HETATM   51  C   UNK     0     -10.248   0.291  -9.755  0.00  0.00     0.051 C 
BRANCH  51  52
HETATM   52  C   UNK     0     -10.364   0.576 -11.245  0.00  0.00     0.114 C 
BRANCH  52  53
HETATM   53  C   UNK     0     -10.008   1.972 -11.566  0.00  0.00     0.139 C 
HETATM   54  O   UNK     0     -10.901   2.809 -11.772  0.00  0.00    -0.650 OA
BRANCH  53  55
HETATM   55  O   UNK     0      -8.685   2.336 -11.639  0.00  0.00    -0.776 OA
HETATM   56  H   UNK     0      -8.222   2.976 -11.038  0.00  0.00     0.167 HD
ENDBRANCH  53  55
ENDBRANCH  52  53
ENDBRANCH  51  52
ENDBRANCH  18  51
TORSDOF 16
ENDMDL
MODEL 11
REMARK VINA RESULT:      -8.9      2.735      7.985
REMARK  16 active torsions:
REMARK  status: ('A' for Active; 'I' for Inactive)
REMARK    1  A    between atoms: C_6  and  C_7 
REMARK    2  A    between atoms: C_7  and  C_8 
REMARK    3  A    between atoms: C_8  and  C_9 
REMARK    4  A    between atoms: C_9  and  O_11 
REMARK    5  A    between atoms: C_16  and  C_17 
REMARK    6  A    between atoms: C_17  and  C_18 
REMARK    7  A    between atoms: C_18  and  C_19 
REMARK    8  A    between atoms: C_19  and  O_21 
REMARK    9  A    between atoms: C_28  and  C_29 
REMARK   10  A    between atoms: C_29  and  C_30 
REMARK   11  A    between atoms: C_30  and  C_31 
REMARK   12  A    between atoms: C_31  and  O_33 
REMARK   13  A    between atoms: C_42  and  C_43 
REMARK   14  A    between atoms: C_43  and  C_44 
REMARK   15  A    between atoms: C_44  and  C_45 
REMARK   16  A    between atoms: C_45  and  O_47 
ROOT
HETATM    1  C   UNK     0       9.318  -2.676  16.926  0.00  0.00     0.051 C 
HETATM    2  C   UNK     0      10.271  -2.244  15.830  0.00  0.00    -0.031 A 
HETATM    3  C   UNK     0      11.102  -3.014  15.032  0.00  0.00     0.021 A 
HETATM    4  N   UNK     0      11.801  -2.199  14.207  0.00  0.00    -0.361 N 
HETATM    5  C   UNK     0      11.427  -0.927  14.456  0.00  0.00     0.022 A 
HETATM    6  C   UNK     0      10.473  -0.918  15.467  0.00  0.00    -0.027 A 
HETATM    7  C   UNK     0      11.827   0.336  13.759  0.00  0.00     0.115 C 
HETATM    8  C   UNK     0      11.894   0.287  12.243  0.00  0.00     0.021 A 
HETATM    9  N   UNK     0      11.109  -0.393  11.393  0.00  0.00    -0.361 N 
HETATM   10  C   UNK     0      11.592  -0.217  10.144  0.00  0.00     0.022 A 
HETATM   11  C   UNK     0      12.713   0.607  10.190  0.00  0.00    -0.027 A 
HETATM   12  C   UNK     0      12.909   0.928  11.509  0.00  0.00    -0.031 A 
HETATM   13  C   UNK     0      14.015   1.812  12.038  0.00  0.00     0.051 C 
HETATM   14  C   UNK     0      11.050  -0.858   8.870  0.00  0.00     0.115 C 
HETATM   15  C   UNK     0      11.099  -2.377   8.875  0.00  0.00     0.021 A 
HETATM   16  N   UNK     0      10.518  -3.215   9.755  0.00  0.00    -0.361 N 
HETATM   17  C   UNK     0      10.858  -4.470   9.455  0.00  0.00     0.022 A 
HETATM   18  C   UNK     0      11.694  -4.451   8.320  0.00  0.00    -0.027 A 
HETATM   19  C   UNK     0      11.836  -3.134   7.966  0.00  0.00    -0.031 A 
HETATM   20  C   UNK     0      12.635  -2.665   6.764  0.00  0.00     0.051 C 
HETATM   21  C   UNK     0      10.531  -5.762  10.169  0.00  0.00     0.115 C 
HETATM   22  C   UNK     0      10.418  -5.718  11.674  0.00  0.00     0.022 A 
HETATM   23  N   UNK     0      11.183  -5.047  12.545  0.00  0.00    -0.361 N 
HETATM   24  C   UNK     0      10.639  -5.173  13.772  0.00  0.00     0.021 A 
HETATM   25  C   UNK     0       9.501  -5.953  13.691  0.00  0.00    -0.031 A 
HETATM   26  C   UNK     0       8.576  -6.407  14.801  0.00  0.00     0.051 C 
HETATM   27  C   UNK     0       9.339  -6.315  12.358  0.00  0.00    -0.027 A 
HETATM   28  C   UNK     0      11.095  -4.516  15.063  0.00  0.00     0.115 C 
HETATM   29  H   UNK     0      12.583  -2.525  13.483  0.00  0.00     0.165 HD
HETATM   30  H   UNK     0      10.184  -0.958  11.665  0.00  0.00     0.165 HD
HETATM   31  H   UNK     0       9.814  -2.918  10.576  0.00  0.00     0.165 HD
HETATM   32  H   UNK     0      12.140  -4.513  12.308  0.00  0.00     0.165 HD
ENDROOT
BRANCH   6  33
HETATM   33  C   UNK     0       9.750   0.239  16.109  0.00  0.00     0.051 C 
BRANCH  33  34
HETATM   34  C   UNK     0      10.535   0.776  17.282  0.00  0.00     0.114 C 
BRANCH  34  35
HETATM   35  C   UNK     0       9.567   1.443  18.199  0.00  0.00     0.139 C 
HETATM   36  O   UNK     0       9.611   2.696  18.370  0.00  0.00    -0.650 OA
BRANCH  35  37
HETATM   37  O   UNK     0       8.589   0.743  18.894  0.00  0.00    -0.776 OA
HETATM   38  H   UNK     0       8.116   1.135  19.693  0.00  0.00     0.167 HD
ENDBRANCH  35  37
ENDBRANCH  34  35
ENDBRANCH  33  34
ENDBRANCH   6  33
BRANCH  27  39
HETATM   39  C   UNK     0       8.255  -7.220  11.890  0.00  0.00     0.051 C 
BRANCH  39  40
HETATM   40  C   UNK     0       6.999  -6.622  11.438  0.00  0.00     0.114 C 
BRANCH  40  41
HETATM   41  C   UNK     0       6.580  -6.663  10.055  0.00  0.00     0.139 C 
HETATM   42  O   UNK     0       7.318  -7.020   9.127  0.00  0.00    -0.650 OA
BRANCH  41  43
HETATM   43  O   UNK     0       5.250  -6.276   9.724  0.00  0.00    -0.776 OA
HETATM   44  H   UNK     0       4.709  -5.924  10.505  0.00  0.00     0.167 HD
ENDBRANCH  41  43
ENDBRANCH  40  41
ENDBRANCH  39  40
ENDBRANCH  27  39
BRANCH  11  45
HETATM   45  C   UNK     0      13.576   1.086   9.055  0.00  0.00     0.051 C 
BRANCH  45  46
HETATM   46  C   UNK     0      14.612   0.112   8.627  0.00  0.00     0.114 C 
BRANCH  46  47
HETATM   47  C   UNK     0      15.709   0.888   7.982  0.00  0.00     0.139 C 
HETATM   48  O   UNK     0      16.017   0.618   6.812  0.00  0.00    -0.650 OA
BRANCH  47  49
HETATM   49  O   UNK     0      16.366   1.879   8.666  0.00  0.00    -0.776 OA
HETATM   50  H   UNK     0      16.322   2.863   8.376  0.00  0.00     0.167 HD
ENDBRANCH  47  49
ENDBRANCH  46  47
ENDBRANCH  45  46
ENDBRANCH  11  45
BRANCH  18  51
HETATM   51  C   UNK     0      12.305  -5.624   7.600  0.00  0.00     0.051 C 
BRANCH  51  52
HETATM   52  C   UNK     0      11.279  -6.075   6.572  0.00  0.00     0.114 C 
BRANCH  52  53
HETATM   53  C   UNK     0      11.127  -7.543   6.554  0.00  0.00     0.139 C 
HETATM   54  O   UNK     0      12.080  -8.270   6.878  0.00  0.00    -0.650 OA
BRANCH  53  55
HETATM   55  O   UNK     0       9.929  -8.098   6.175  0.00  0.00    -0.776 OA
HETATM   56  H   UNK     0       9.636  -9.031   6.350  0.00  0.00     0.167 HD
ENDBRANCH  53  55
ENDBRANCH  52  53
ENDBRANCH  51  52
ENDBRANCH  18  51
TORSDOF 16
ENDMDL
MODEL 12
REMARK VINA RESULT:      -8.9      2.798      7.894
REMARK  16 active torsions:
REMARK  status: ('A' for Active; 'I' for Inactive)
REMARK    1  A    between atoms: C_6  and  C_7 
REMARK    2  A    between atoms: C_7  and  C_8 
REMARK    3  A    between atoms: C_8  and  C_9 
REMARK    4  A    between atoms: C_9  and  O_11 
REMARK    5  A    between atoms: C_16  and  C_17 
REMARK    6  A    between atoms: C_17  and  C_18 
REMARK    7  A    between atoms: C_18  and  C_19 
REMARK    8  A    between atoms: C_19  and  O_21 
REMARK    9  A    between atoms: C_28  and  C_29 
REMARK   10  A    between atoms: C_29  and  C_30 
REMARK   11  A    between atoms: C_30  and  C_31 
REMARK   12  A    between atoms: C_31  and  O_33 
REMARK   13  A    between atoms: C_42  and  C_43 
REMARK   14  A    between atoms: C_43  and  C_44 
REMARK   15  A    between atoms: C_44  and  C_45 
REMARK   16  A    between atoms: C_45  and  O_47 
ROOT
HETATM    1  C   UNK     0      14.663  -1.470   7.327  0.00  0.00     0.051 C 
HETATM    2  C   UNK     0      13.872  -1.380   8.617  0.00  0.00    -0.031 A 
HETATM    3  C   UNK     0      12.541  -1.684   8.856  0.00  0.00     0.021 A 
HETATM    4  N   UNK     0      12.255  -1.421  10.153  0.00  0.00    -0.361 N 
HETATM    5  C   UNK     0      13.376  -0.964  10.748  0.00  0.00     0.022 A 
HETATM    6  C   UNK     0      14.407  -0.923   9.815  0.00  0.00    -0.027 A 
HETATM    7  C   UNK     0      13.620  -0.621  12.184  0.00  0.00     0.115 C 
HETATM    8  C   UNK     0      13.044  -1.571  13.219  0.00  0.00     0.021 A 
HETATM    9  N   UNK     0      12.925  -2.906  13.154  0.00  0.00    -0.361 N 
HETATM   10  C   UNK     0      12.271  -3.323  14.259  0.00  0.00     0.022 A 
HETATM   11  C   UNK     0      11.969  -2.228  15.063  0.00  0.00    -0.027 A 
HETATM   12  C   UNK     0      12.453  -1.121  14.414  0.00  0.00    -0.031 A 
HETATM   13  C   UNK     0      12.357   0.301  14.920  0.00  0.00     0.051 C 
HETATM   14  C   UNK     0      11.860  -4.758  14.575  0.00  0.00     0.115 C 
HETATM   15  C   UNK     0      10.909  -5.365  13.557  0.00  0.00     0.021 A 
HETATM   16  N   UNK     0      11.113  -5.527  12.236  0.00  0.00    -0.361 N 
HETATM   17  C   UNK     0      10.010  -6.032  11.680  0.00  0.00     0.022 A 
HETATM   18  C   UNK     0       9.043  -6.216  12.688  0.00  0.00    -0.027 A 
HETATM   19  C   UNK     0       9.618  -5.796  13.859  0.00  0.00    -0.031 A 
HETATM   20  C   UNK     0       8.927  -5.857  15.208  0.00  0.00     0.051 C 
HETATM   21  C   UNK     0       9.701  -6.329  10.230  0.00  0.00     0.115 C 
HETATM   22  C   UNK     0      10.304  -5.418   9.187  0.00  0.00     0.022 A 
HETATM   23  N   UNK     0      10.439  -4.086   9.227  0.00  0.00    -0.361 N 
HETATM   24  C   UNK     0      11.161  -3.701   8.155  0.00  0.00     0.021 A 
HETATM   25  C   UNK     0      11.490  -4.811   7.401  0.00  0.00    -0.031 A 
HETATM   26  C   UNK     0      12.252  -4.884   6.094  0.00  0.00     0.051 C 
HETATM   27  C   UNK     0      10.952  -5.922   8.041  0.00  0.00    -0.027 A 
HETATM   28  C   UNK     0      11.650  -2.303   7.817  0.00  0.00     0.115 C 
HETATM   29  H   UNK     0      11.252  -1.522  10.630  0.00  0.00     0.165 HD
HETATM   30  H   UNK     0      13.345  -3.563  12.353  0.00  0.00     0.165 HD
HETATM   31  H   UNK     0      12.073  -5.326  11.692  0.00  0.00     0.165 HD
HETATM   32  H   UNK     0       9.989  -3.399   9.990  0.00  0.00     0.165 HD
ENDROOT
BRANCH   6  33
HETATM   33  C   UNK     0      15.841  -0.486   9.972  0.00  0.00     0.051 C 
BRANCH  33  34
HETATM   34  C   UNK     0      16.682  -1.604  10.541  0.00  0.00     0.114 C 
BRANCH  34  35
HETATM   35  C   UNK     0      17.456  -2.198   9.414  0.00  0.00     0.139 C 
HETATM   36  O   UNK     0      18.179  -1.463   8.680  0.00  0.00    -0.650 OA
BRANCH  35  37
HETATM   37  O   UNK     0      17.429  -3.556   9.119  0.00  0.00    -0.776 OA
HETATM   38  H   UNK     0      18.260  -4.124   9.140  0.00  0.00     0.167 HD
ENDBRANCH  35  37
ENDBRANCH  34  35
ENDBRANCH  33  34
ENDBRANCH   6  33
BRANCH  27  39
HETATM   39  C   UNK     0      11.040  -7.299   7.485  0.00  0.00     0.051 C 
BRANCH  39  40
HETATM   40  C   UNK     0       9.824  -7.910   6.949  0.00  0.00     0.114 C 
BRANCH  40  41
HETATM   41  C   UNK     0       8.936  -8.705   7.768  0.00  0.00     0.139 C 
HETATM   42  O   UNK     0       7.702  -8.593   7.746  0.00  0.00    -0.650 OA
BRANCH  41  43
HETATM   43  O   UNK     0       9.492  -9.672   8.653  0.00  0.00    -0.776 OA
HETATM   44  H   UNK     0       9.500  -9.393   9.627  0.00  0.00     0.167 HD
ENDBRANCH  41  43
ENDBRANCH  40  41
ENDBRANCH  39  40
ENDBRANCH  27  39
BRANCH  11  45
HETATM   45  C   UNK     0      11.259  -2.200  16.389  0.00  0.00     0.051 C 
BRANCH  45  46
HETATM   46  C   UNK     0       9.780  -2.121  16.284  0.00  0.00     0.114 C 
BRANCH  46  47
HETATM   47  C   UNK     0       9.219  -2.557  17.595  0.00  0.00     0.139 C 
HETATM   48  O   UNK     0       9.974  -2.601  18.576  0.00  0.00    -0.650 OA
BRANCH  47  49
HETATM   49  O   UNK     0       7.897  -2.904  17.713  0.00  0.00    -0.776 OA
HETATM   50  H   UNK     0       7.490  -3.204  18.607  0.00  0.00     0.167 HD
ENDBRANCH  47  49
ENDBRANCH  46  47
ENDBRANCH  45  46
ENDBRANCH  11  45
BRANCH  18  51
HETATM   51  C   UNK     0       7.653  -6.782  12.546  0.00  0.00     0.051 C 
BRANCH  51  52
HETATM   52  C   UNK     0       7.819  -8.288  12.408  0.00  0.00     0.114 C 
BRANCH  52  53
HETATM   53  C   UNK     0       6.778  -8.878  11.543  0.00  0.00     0.139 C 
HETATM   54  O   UNK     0       5.588  -8.559  11.697  0.00  0.00    -0.650 OA
BRANCH  53  55
HETATM   55  O   UNK     0       7.134  -9.782  10.572  0.00  0.00    -0.776 OA
HETATM   56  H   UNK     0       7.589 -10.651  10.722  0.00  0.00     0.167 HD
ENDBRANCH  53  55
ENDBRANCH  52  53
ENDBRANCH  51  52
ENDBRANCH  18  51
TORSDOF 16
ENDMDL
MODEL 13
REMARK VINA RESULT:      -8.9      2.652      7.361
REMARK  16 active torsions:
REMARK  status: ('A' for Active; 'I' for Inactive)
REMARK    1  A    between atoms: C_6  and  C_7 
REMARK    2  A    between atoms: C_7  and  C_8 
REMARK    3  A    between atoms: C_8  and  C_9 
REMARK    4  A    between atoms: C_9  and  O_11 
REMARK    5  A    between atoms: C_16  and  C_17 
REMARK    6  A    between atoms: C_17  and  C_18 
REMARK    7  A    between atoms: C_18  and  C_19 
REMARK    8  A    between atoms: C_19  and  O_21 
REMARK    9  A    between atoms: C_28  and  C_29 
REMARK   10  A    between atoms: C_29  and  C_30 
REMARK   11  A    between atoms: C_30  and  C_31 
REMARK   12  A    between atoms: C_31  and  O_33 
REMARK   13  A    between atoms: C_42  and  C_43 
REMARK   14  A    between atoms: C_43  and  C_44 
REMARK   15  A    between atoms: C_44  and  C_45 
REMARK   16  A    between atoms: C_45  and  O_47 
ROOT
HETATM    1  C   UNK     0      10.940  -2.695  16.680  0.00  0.00     0.051 C 
HETATM    2  C   UNK     0      11.754  -2.809  15.407  0.00  0.00    -0.031 A 
HETATM    3  C   UNK     0      12.072  -3.935  14.664  0.00  0.00     0.021 A 
HETATM    4  N   UNK     0      12.849  -3.568  13.617  0.00  0.00    -0.361 N 
HETATM    5  C   UNK     0      13.027  -2.232  13.673  0.00  0.00     0.022 A 
HETATM    6  C   UNK     0      12.358  -1.725  14.782  0.00  0.00    -0.027 A 
HETATM    7  C   UNK     0      13.722  -1.323  12.708  0.00  0.00     0.115 C 
HETATM    8  C   UNK     0      13.472  -1.576  11.231  0.00  0.00     0.021 A 
HETATM    9  N   UNK     0      12.343  -1.987  10.633  0.00  0.00    -0.361 N 
HETATM   10  C   UNK     0      12.606  -2.167   9.321  0.00  0.00     0.022 A 
HETATM   11  C   UNK     0      13.938  -1.854   9.066  0.00  0.00    -0.027 A 
HETATM   12  C   UNK     0      14.490  -1.481  10.265  0.00  0.00    -0.031 A 
HETATM   13  C   UNK     0      15.924  -1.050  10.471  0.00  0.00     0.051 C 
HETATM   14  C   UNK     0      11.631  -2.689   8.270  0.00  0.00     0.115 C 
HETATM   15  C   UNK     0      11.116  -4.092   8.550  0.00  0.00     0.021 A 
HETATM   16  N   UNK     0      10.448  -4.520   9.638  0.00  0.00    -0.361 N 
HETATM   17  C   UNK     0      10.236  -5.833   9.534  0.00  0.00     0.022 A 
HETATM   18  C   UNK     0      10.784  -6.282   8.316  0.00  0.00    -0.027 A 
HETATM   19  C   UNK     0      11.331  -5.181   7.708  0.00  0.00    -0.031 A 
HETATM   20  C   UNK     0      11.998  -5.214   6.346  0.00  0.00     0.051 C 
HETATM   21  C   UNK     0       9.600  -6.795  10.512  0.00  0.00     0.115 C 
HETATM   22  C   UNK     0       9.804  -6.530  11.985  0.00  0.00     0.022 A 
HETATM   23  N   UNK     0      10.915  -6.116  12.608  0.00  0.00    -0.361 N 
HETATM   24  C   UNK     0      10.610  -5.869  13.898  0.00  0.00     0.021 A 
HETATM   25  C   UNK     0       9.273  -6.140  14.113  0.00  0.00    -0.031 A 
HETATM   26  C   UNK     0       8.478  -6.054  15.400  0.00  0.00     0.051 C 
HETATM   27  C   UNK     0       8.735  -6.565  12.903  0.00  0.00    -0.027 A 
HETATM   28  C   UNK     0      11.517  -5.296  14.973  0.00  0.00     0.115 C 
HETATM   29  H   UNK     0      13.300  -4.261  12.869  0.00  0.00     0.165 HD
HETATM   30  H   UNK     0      11.347  -2.103  11.124  0.00  0.00     0.165 HD
HETATM   31  H   UNK     0      10.076  -3.873  10.475  0.00  0.00     0.165 HD
HETATM   32  H   UNK     0      11.936  -6.037  12.152  0.00  0.00     0.165 HD
ENDROOT
BRANCH   6  33
HETATM   33  C   UNK     0      12.251  -0.309  15.287  0.00  0.00     0.051 C 
BRANCH  33  34
HETATM   34  C   UNK     0      10.933   0.307  14.881  0.00  0.00     0.114 C 
BRANCH  34  35
HETATM   35  C   UNK     0      11.149   1.006  13.582  0.00  0.00     0.139 C 
HETATM   36  O   UNK     0      10.795   0.459  12.497  0.00  0.00    -0.650 OA
BRANCH  35  37
HETATM   37  O   UNK     0      11.732   2.265  13.496  0.00  0.00    -0.776 OA
HETATM   38  H   UNK     0      12.682   2.434  13.784  0.00  0.00     0.167 HD
ENDBRANCH  35  37
ENDBRANCH  34  35
ENDBRANCH  33  34
ENDBRANCH   6  33
BRANCH  27  39
HETATM   39  C   UNK     0       7.325  -7.016  12.757  0.00  0.00     0.051 C 
BRANCH  39  40
HETATM   40  C   UNK     0       7.076  -8.420  12.429  0.00  0.00     0.114 C 
BRANCH  40  41
HETATM   41  C   UNK     0       6.684  -8.844  11.104  0.00  0.00     0.139 C 
HETATM   42  O   UNK     0       6.260  -8.069  10.236  0.00  0.00    -0.650 OA
BRANCH  41  43
HETATM   43  O   UNK     0       6.784 -10.222  10.762  0.00  0.00    -0.776 OA
HETATM   44  H   UNK     0       5.917 -10.640  10.446  0.00  0.00     0.167 HD
ENDBRANCH  41  43
ENDBRANCH  40  41
ENDBRANCH  39  40
ENDBRANCH  27  39
BRANCH  11  45
HETATM   45  C   UNK     0      14.681  -1.895   7.757  0.00  0.00     0.051 C 
BRANCH  45  46
HETATM   46  C   UNK     0      14.749  -3.244   7.140  0.00  0.00     0.114 C 
BRANCH  46  47
HETATM   47  C   UNK     0      15.510  -4.120   8.076  0.00  0.00     0.139 C 
HETATM   48  O   UNK     0      16.681  -3.820   8.348  0.00  0.00    -0.650 OA
BRANCH  47  49
HETATM   49  O   UNK     0      14.929  -5.235   8.625  0.00  0.00    -0.776 OA
HETATM   50  H   UNK     0      14.130  -5.706   8.184  0.00  0.00     0.167 HD
ENDBRANCH  47  49
ENDBRANCH  46  47
ENDBRANCH  45  46
ENDBRANCH  11  45
BRANCH  18  51
HETATM   51  C   UNK     0      10.768  -7.679   7.751  0.00  0.00     0.051 C 
BRANCH  51  52
HETATM   52  C   UNK     0       9.334  -7.948   7.321  0.00  0.00     0.114 C 
BRANCH  52  53
HETATM   53  C   UNK     0       8.812  -9.200   7.901  0.00  0.00     0.139 C 
HETATM   54  O   UNK     0       9.585  -9.999   8.454  0.00  0.00    -0.650 OA
BRANCH  53  55
HETATM   55  O   UNK     0       7.469  -9.477   7.822  0.00  0.00    -0.776 OA
HETATM   56  H   UNK     0       6.772  -9.177   8.462  0.00  0.00     0.167 HD
ENDBRANCH  53  55
ENDBRANCH  52  53
ENDBRANCH  51  52
ENDBRANCH  18  51
TORSDOF 16
ENDMDL
MODEL 14
REMARK VINA RESULT:      -8.8     31.157     34.526
REMARK  16 active torsions:
REMARK  status: ('A' for Active; 'I' for Inactive)
REMARK    1  A    between atoms: C_6  and  C_7 
REMARK    2  A    between atoms: C_7  and  C_8 
REMARK    3  A    between atoms: C_8  and  C_9 
REMARK    4  A    between atoms: C_9  and  O_11 
REMARK    5  A    between atoms: C_16  and  C_17 
REMARK    6  A    between atoms: C_17  and  C_18 
REMARK    7  A    between atoms: C_18  and  C_19 
REMARK    8  A    between atoms: C_19  and  O_21 
REMARK    9  A    between atoms: C_28  and  C_29 
REMARK   10  A    between atoms: C_29  and  C_30 
REMARK   11  A    between atoms: C_30  and  C_31 
REMARK   12  A    between atoms: C_31  and  O_33 
REMARK   13  A    between atoms: C_42  and  C_43 
REMARK   14  A    between atoms: C_43  and  C_44 
REMARK   15  A    between atoms: C_44  and  C_45 
REMARK   16  A    between atoms: C_45  and  O_47 
ROOT
HETATM    1  C   UNK     0     -11.505  -0.096 -13.262  0.00  0.00     0.051 C 
HETATM    2  C   UNK     0     -12.401   0.095 -12.055  0.00  0.00    -0.031 A 
HETATM    3  C   UNK     0     -13.755  -0.164 -11.914  0.00  0.00     0.021 A 
HETATM    4  N   UNK     0     -14.144   0.189 -10.666  0.00  0.00    -0.361 N 
HETATM    5  C   UNK     0     -13.066   0.659 -10.005  0.00  0.00     0.022 A 
HETATM    6  C   UNK     0     -11.958   0.617 -10.846  0.00  0.00    -0.027 A 
HETATM    7  C   UNK     0     -12.937   1.090  -8.578  0.00  0.00     0.115 C 
HETATM    8  C   UNK     0     -13.626   0.221  -7.539  0.00  0.00     0.021 A 
HETATM    9  N   UNK     0     -13.775  -1.112  -7.531  0.00  0.00    -0.361 N 
HETATM   10  C   UNK     0     -14.532  -1.442  -6.463  0.00  0.00     0.022 A 
HETATM   11  C   UNK     0     -14.872  -0.290  -5.759  0.00  0.00    -0.027 A 
HETATM   12  C   UNK     0     -14.304   0.761  -6.432  0.00  0.00    -0.031 A 
HETATM   13  C   UNK     0     -14.404   2.215  -6.026  0.00  0.00     0.051 C 
HETATM   14  C   UNK     0     -15.008  -2.845  -6.094  0.00  0.00     0.115 C 
HETATM   15  C   UNK     0     -15.885  -3.495  -7.152  0.00  0.00     0.021 A 
HETATM   16  N   UNK     0     -15.572  -3.747  -8.437  0.00  0.00    -0.361 N 
HETATM   17  C   UNK     0     -16.638  -4.262  -9.055  0.00  0.00     0.022 A 
HETATM   18  C   UNK     0     -17.692  -4.359  -8.125  0.00  0.00    -0.027 A 
HETATM   19  C   UNK     0     -17.208  -3.877  -6.937  0.00  0.00    -0.031 A 
HETATM   20  C   UNK     0     -18.014  -3.835  -5.652  0.00  0.00     0.051 C 
HETATM   21  C   UNK     0     -16.829  -4.646 -10.504  0.00  0.00     0.115 C 
HETATM   22  C   UNK     0     -16.114  -3.818 -11.546  0.00  0.00     0.022 A 
HETATM   23  N   UNK     0     -15.946  -2.489 -11.578  0.00  0.00    -0.361 N 
HETATM   24  C   UNK     0     -15.125  -2.191 -12.605  0.00  0.00     0.021 A 
HETATM   25  C   UNK     0     -14.763  -3.355 -13.256  0.00  0.00    -0.031 A 
HETATM   26  C   UNK     0     -13.894  -3.529 -14.484  0.00  0.00     0.051 C 
HETATM   27  C   UNK     0     -15.384  -4.409 -12.597  0.00  0.00    -0.027 A 
HETATM   28  C   UNK     0     -14.571  -0.829 -12.986  0.00  0.00     0.115 C 
HETATM   29  H   UNK     0     -15.186   0.141 -10.273  0.00  0.00     0.165 HD
HETATM   30  H   UNK     0     -13.306  -1.828  -8.249  0.00  0.00     0.165 HD
HETATM   31  H   UNK     0     -14.565  -3.603  -8.907  0.00  0.00     0.165 HD
HETATM   32  H   UNK     0     -16.441  -1.745 -10.901  0.00  0.00     0.165 HD
ENDROOT
BRANCH   6  33
HETATM   33  C   UNK     0     -10.531   1.032 -10.592  0.00  0.00     0.051 C 
BRANCH  33  34
HETATM   34  C   UNK     0     -10.331   2.492 -10.921  0.00  0.00     0.114 C 
BRANCH  34  35
HETATM   35  C   UNK     0      -9.179   2.979 -10.111  0.00  0.00     0.139 C 
HETATM   36  O   UNK     0      -7.995   2.670 -10.436  0.00  0.00    -0.650 OA
BRANCH  35  37
HETATM   37  O   UNK     0      -9.338   3.780  -8.986  0.00  0.00    -0.776 OA
HETATM   38  H   UNK     0      -8.588   4.344  -8.621  0.00  0.00     0.167 HD
ENDBRANCH  35  37
ENDBRANCH  34  35
ENDBRANCH  33  34
ENDBRANCH   6  33
BRANCH  27  39
HETATM   39  C   UNK     0     -15.287  -5.822 -13.056  0.00  0.00     0.051 C 
BRANCH  39  40
HETATM   40  C   UNK     0     -14.341  -6.708 -12.379  0.00  0.00     0.114 C 
BRANCH  40  41
HETATM   41  C   UNK     0     -14.339  -6.881 -10.943  0.00  0.00     0.139 C 
HETATM   42  O   UNK     0     -14.990  -7.758 -10.360  0.00  0.00    -0.650 OA
BRANCH  41  43
HETATM   43  O   UNK     0     -13.552  -6.005 -10.143  0.00  0.00    -0.776 OA
HETATM   44  H   UNK     0     -13.987  -5.730  -9.271  0.00  0.00     0.167 HD
ENDBRANCH  41  43
ENDBRANCH  40  41
ENDBRANCH  39  40
ENDBRANCH  27  39
BRANCH  11  45
HETATM   45  C   UNK     0     -15.692  -0.161  -4.504  0.00  0.00     0.051 C 
BRANCH  45  46
HETATM   46  C   UNK     0     -17.159  -0.152  -4.736  0.00  0.00     0.114 C 
BRANCH  46  47
HETATM   47  C   UNK     0     -17.814   0.060  -3.414  0.00  0.00     0.139 C 
HETATM   48  O   UNK     0     -17.295  -0.443  -2.408  0.00  0.00    -0.650 OA
BRANCH  47  49
HETATM   49  O   UNK     0     -18.969   0.794  -3.312  0.00  0.00    -0.776 OA
HETATM   50  H   UNK     0     -19.897   0.356  -3.328  0.00  0.00     0.167 HD
ENDBRANCH  47  49
ENDBRANCH  46  47
ENDBRANCH  45  46
ENDBRANCH  11  45
BRANCH  18  51
HETATM   51  C   UNK     0     -19.080  -4.902  -8.352  0.00  0.00     0.051 C 
BRANCH  51  52
HETATM   52  C   UNK     0     -18.917  -6.394  -8.606  0.00  0.00     0.114 C 
BRANCH  52  53
HETATM   53  C   UNK     0     -18.581  -7.128  -7.371  0.00  0.00     0.139 C 
HETATM   54  O   UNK     0     -17.538  -7.797  -7.310  0.00  0.00    -0.650 OA
BRANCH  53  55
HETATM   55  O   UNK     0     -19.431  -7.069  -6.293  0.00  0.00    -0.776 OA
HETATM   56  H   UNK     0     -19.985  -6.289  -6.028  0.00  0.00     0.167 HD
ENDBRANCH  53  55
ENDBRANCH  52  53
ENDBRANCH  51  52
ENDBRANCH  18  51
TORSDOF 16
ENDMDL
MODEL 15
REMARK VINA RESULT:      -8.8     31.440     34.278
REMARK  16 active torsions:
REMARK  status: ('A' for Active; 'I' for Inactive)
REMARK    1  A    between atoms: C_6  and  C_7 
REMARK    2  A    between atoms: C_7  and  C_8 
REMARK    3  A    between atoms: C_8  and  C_9 
REMARK    4  A    between atoms: C_9  and  O_11 
REMARK    5  A    between atoms: C_16  and  C_17 
REMARK    6  A    between atoms: C_17  and  C_18 
REMARK    7  A    between atoms: C_18  and  C_19 
REMARK    8  A    between atoms: C_19  and  O_21 
REMARK    9  A    between atoms: C_28  and  C_29 
REMARK   10  A    between atoms: C_29  and  C_30 
REMARK   11  A    between atoms: C_30  and  C_31 
REMARK   12  A    between atoms: C_31  and  O_33 
REMARK   13  A    between atoms: C_42  and  C_43 
REMARK   14  A    between atoms: C_43  and  C_44 
REMARK   15  A    between atoms: C_44  and  C_45 
REMARK   16  A    between atoms: C_45  and  O_47 
ROOT
HETATM    1  C   UNK     0     -15.865   0.463  -5.308  0.00  0.00     0.051 C 
HETATM    2  C   UNK     0     -14.752   0.277  -6.320  0.00  0.00    -0.031 A 
HETATM    3  C   UNK     0     -14.187  -0.894  -6.801  0.00  0.00     0.021 A 
HETATM    4  N   UNK     0     -13.198  -0.581  -7.671  0.00  0.00    -0.361 N 
HETATM    5  C   UNK     0     -13.125   0.763  -7.761  0.00  0.00     0.022 A 
HETATM    6  C   UNK     0     -14.082   1.332  -6.926  0.00  0.00    -0.027 A 
HETATM    7  C   UNK     0     -12.269   1.614  -8.647  0.00  0.00     0.115 C 
HETATM    8  C   UNK     0     -12.125   1.164 -10.090  0.00  0.00     0.021 A 
HETATM    9  N   UNK     0     -13.039   0.578 -10.879  0.00  0.00    -0.361 N 
HETATM   10  C   UNK     0     -12.445   0.270 -12.052  0.00  0.00     0.022 A 
HETATM   11  C   UNK     0     -11.114   0.676 -12.020  0.00  0.00    -0.027 A 
HETATM   12  C   UNK     0     -10.906   1.240 -10.788  0.00  0.00    -0.031 A 
HETATM   13  C   UNK     0      -9.599   1.829 -10.305  0.00  0.00     0.051 C 
HETATM   14  C   UNK     0     -13.091  -0.465 -13.223  0.00  0.00     0.115 C 
HETATM   15  C   UNK     0     -13.569  -1.867 -12.883  0.00  0.00     0.021 A 
HETATM   16  N   UNK     0     -14.460  -2.224 -11.938  0.00  0.00    -0.361 N 
HETATM   17  C   UNK     0     -14.555  -3.555 -11.907  0.00  0.00     0.022 A 
HETATM   18  C   UNK     0     -13.692  -4.091 -12.884  0.00  0.00    -0.027 A 
HETATM   19  C   UNK     0     -13.081  -3.023 -13.489  0.00  0.00    -0.031 A 
HETATM   20  C   UNK     0     -12.093  -3.153 -14.633  0.00  0.00     0.051 C 
HETATM   21  C   UNK     0     -15.353  -4.451 -10.987  0.00  0.00     0.115 C 
HETATM   22  C   UNK     0     -15.542  -3.994  -9.560  0.00  0.00     0.022 A 
HETATM   23  N   UNK     0     -14.651  -3.405  -8.752  0.00  0.00    -0.361 N 
HETATM   24  C   UNK     0     -15.284  -3.037  -7.620  0.00  0.00     0.021 A 
HETATM   25  C   UNK     0     -16.613  -3.407  -7.697  0.00  0.00    -0.031 A 
HETATM   26  C   UNK     0     -17.709  -3.246  -6.663  0.00  0.00     0.051 C 
HETATM   27  C   UNK     0     -16.803  -4.022  -8.929  0.00  0.00    -0.027 A 
HETATM   28  C   UNK     0     -14.715  -2.255  -6.448  0.00  0.00     0.115 C 
HETATM   29  H   UNK     0     -12.531  -1.311  -8.185  0.00  0.00     0.165 HD
HETATM   30  H   UNK     0     -14.118   0.427 -10.630  0.00  0.00     0.165 HD
HETATM   31  H   UNK     0     -15.070  -1.522 -11.313  0.00  0.00     0.165 HD
HETATM   32  H   UNK     0     -13.556  -3.282  -8.955  0.00  0.00     0.165 HD
ENDROOT
BRANCH   6  33
HETATM   33  C   UNK     0     -14.401   2.781  -6.663  0.00  0.00     0.051 C 
BRANCH  33  34
HETATM   34  C   UNK     0     -13.611   3.297  -5.483  0.00  0.00     0.114 C 
BRANCH  34  35
HETATM   35  C   UNK     0     -13.826   4.771  -5.413  0.00  0.00     0.139 C 
HETATM   36  O   UNK     0     -12.908   5.566  -5.771  0.00  0.00    -0.650 OA
BRANCH  35  37
HETATM   37  O   UNK     0     -15.014   5.336  -4.965  0.00  0.00    -0.776 OA
HETATM   38  H   UNK     0     -15.680   4.815  -4.418  0.00  0.00     0.167 HD
ENDBRANCH  35  37
ENDBRANCH  34  35
ENDBRANCH  33  34
ENDBRANCH   6  33
BRANCH  27  39
HETATM   39  C   UNK     0     -18.100  -4.621  -9.345  0.00  0.00     0.051 C 
BRANCH  39  40
HETATM   40  C   UNK     0     -18.218  -6.078  -9.359  0.00  0.00     0.114 C 
BRANCH  40  41
HETATM   41  C   UNK     0     -17.427  -6.924  -8.494  0.00  0.00     0.139 C 
HETATM   42  O   UNK     0     -16.516  -7.657  -8.901  0.00  0.00    -0.650 OA
BRANCH  41  43
HETATM   43  O   UNK     0     -17.697  -6.927  -7.096  0.00  0.00    -0.776 OA
HETATM   44  H   UNK     0     -17.769  -7.850  -6.685  0.00  0.00     0.167 HD
ENDBRANCH  41  43
ENDBRANCH  40  41
ENDBRANCH  39  40
ENDBRANCH  27  39
BRANCH  11  45
HETATM   45  C   UNK     0     -10.066   0.552 -13.094  0.00  0.00     0.051 C 
BRANCH  45  46
HETATM   46  C   UNK     0     -10.292   1.435 -14.266  0.00  0.00     0.114 C 
BRANCH  46  47
HETATM   47  C   UNK     0      -9.118   2.351 -14.361  0.00  0.00     0.139 C 
HETATM   48  O   UNK     0      -9.280   3.471 -14.865  0.00  0.00    -0.650 OA
BRANCH  47  49
HETATM   49  O   UNK     0      -7.885   1.962 -13.903  0.00  0.00    -0.776 OA
HETATM   50  H   UNK     0      -7.564   2.179 -12.952  0.00  0.00     0.167 HD
ENDBRANCH  47  49
ENDBRANCH  46  47
ENDBRANCH  45  46
ENDBRANCH  11  45
BRANCH  18  51
HETATM   51  C   UNK     0     -13.477  -5.540 -13.236  0.00  0.00     0.051 C 
BRANCH  51  52
HETATM   52  C   UNK     0     -14.862  -6.151 -13.391  0.00  0.00     0.114 C 
BRANCH  52  53
HETATM   53  C   UNK     0     -14.974  -7.442 -12.686  0.00  0.00     0.139 C 
HETATM   54  O   UNK     0     -14.102  -8.312 -12.838  0.00  0.00    -0.650 OA
BRANCH  53  55
HETATM   55  O   UNK     0     -16.050  -7.676 -11.864  0.00  0.00    -0.776 OA
HETATM   56  H   UNK     0     -16.023  -7.761 -10.876  0.00  0.00     0.167 HD
ENDBRANCH  53  55
ENDBRANCH  52  53
ENDBRANCH  51  52
ENDBRANCH  18  51
TORSDOF 16
ENDMDL
MODEL 16
REMARK VINA RESULT:      -8.8     31.287     34.721
REMARK  16 active torsions:
REMARK  status: ('A' for Active; 'I' for Inactive)
REMARK    1  A    between atoms: C_6  and  C_7 
REMARK    2  A    between atoms: C_7  and  C_8 
REMARK    3  A    between atoms: C_8  and  C_9 
REMARK    4  A    between atoms: C_9  and  O_11 
REMARK    5  A    between atoms: C_16  and  C_17 
REMARK    6  A    between atoms: C_17  and  C_18 
REMARK    7  A    between atoms: C_18  and  C_19 
REMARK    8  A    between atoms: C_19  and  O_21 
REMARK    9  A    between atoms: C_28  and  C_29 
REMARK   10  A    between atoms: C_29  and  C_30 
REMARK   11  A    between atoms: C_30  and  C_31 
REMARK   12  A    between atoms: C_31  and  O_33 
REMARK   13  A    between atoms: C_42  and  C_43 
REMARK   14  A    between atoms: C_43  and  C_44 
REMARK   15  A    between atoms: C_44  and  C_45 
REMARK   16  A    between atoms: C_45  and  O_47 
ROOT
HETATM    1  C   UNK     0     -14.599   1.874  -4.465  0.00  0.00     0.051 C 
HETATM    2  C   UNK     0     -14.540   0.697  -5.417  0.00  0.00    -0.031 A 
HETATM    3  C   UNK     0     -14.653  -0.658  -5.149  0.00  0.00     0.021 A 
HETATM    4  N   UNK     0     -14.507  -1.350  -6.304  0.00  0.00    -0.361 N 
HETATM    5  C   UNK     0     -14.312  -0.465  -7.304  0.00  0.00     0.022 A 
HETATM    6  C   UNK     0     -14.324   0.825  -6.783  0.00  0.00    -0.027 A 
HETATM    7  C   UNK     0     -14.190  -0.704  -8.776  0.00  0.00     0.115 C 
HETATM    8  C   UNK     0     -15.154  -1.706  -9.387  0.00  0.00     0.021 A 
HETATM    9  N   UNK     0     -16.435  -1.939  -9.061  0.00  0.00    -0.361 N 
HETATM   10  C   UNK     0     -16.873  -2.979  -9.801  0.00  0.00     0.022 A 
HETATM   11  C   UNK     0     -15.849  -3.422 -10.634  0.00  0.00    -0.027 A 
HETATM   12  C   UNK     0     -14.763  -2.624 -10.378  0.00  0.00    -0.031 A 
HETATM   13  C   UNK     0     -13.417  -2.735 -11.057  0.00  0.00     0.051 C 
HETATM   14  C   UNK     0     -18.251  -3.629  -9.717  0.00  0.00     0.115 C 
HETATM   15  C   UNK     0     -18.568  -4.224  -8.354  0.00  0.00     0.021 A 
HETATM   16  N   UNK     0     -18.599  -3.589  -7.168  0.00  0.00    -0.361 N 
HETATM   17  C   UNK     0     -18.849  -4.476  -6.202  0.00  0.00     0.022 A 
HETATM   18  C   UNK     0     -18.997  -5.749  -6.788  0.00  0.00    -0.027 A 
HETATM   19  C   UNK     0     -18.820  -5.577  -8.137  0.00  0.00    -0.031 A 
HETATM   20  C   UNK     0     -18.932  -6.699  -9.152  0.00  0.00     0.051 C 
HETATM   21  C   UNK     0     -18.914  -4.288  -4.703  0.00  0.00     0.115 C 
HETATM   22  C   UNK     0     -17.992  -3.263  -4.087  0.00  0.00     0.022 A 
HETATM   23  N   UNK     0     -16.713  -3.006  -4.395  0.00  0.00    -0.361 N 
HETATM   24  C   UNK     0     -16.322  -1.917  -3.702  0.00  0.00     0.021 A 
HETATM   25  C   UNK     0     -17.371  -1.469  -2.922  0.00  0.00    -0.031 A 
HETATM   26  C   UNK     0     -17.406  -0.310  -1.947  0.00  0.00     0.051 C 
HETATM   27  C   UNK     0     -18.450  -2.314  -3.151  0.00  0.00    -0.027 A 
HETATM   28  C   UNK     0     -14.990  -1.192  -3.786  0.00  0.00     0.115 C 
HETATM   29  H   UNK     0     -14.504  -2.461  -6.399  0.00  0.00     0.165 HD
HETATM   30  H   UNK     0     -17.048  -1.339  -8.345  0.00  0.00     0.165 HD
HETATM   31  H   UNK     0     -18.491  -2.484  -7.012  0.00  0.00     0.165 HD
HETATM   32  H   UNK     0     -16.062  -3.617  -5.072  0.00  0.00     0.165 HD
ENDROOT
BRANCH   6  33
HETATM   33  C   UNK     0     -14.145   2.152  -7.476  0.00  0.00     0.051 C 
BRANCH  33  34
HETATM   34  C   UNK     0     -12.679   2.471  -7.651  0.00  0.00     0.114 C 
BRANCH  34  35
HETATM   35  C   UNK     0     -12.457   3.850  -7.128  0.00  0.00     0.139 C 
HETATM   36  O   UNK     0     -12.975   4.845  -7.714  0.00  0.00    -0.650 OA
BRANCH  35  37
HETATM   37  O   UNK     0     -11.692   4.108  -5.998  0.00  0.00    -0.776 OA
HETATM   38  H   UNK     0     -11.201   4.979  -5.871  0.00  0.00     0.167 HD
ENDBRANCH  35  37
ENDBRANCH  34  35
ENDBRANCH  33  34
ENDBRANCH   6  33
BRANCH  27  39
HETATM   39  C   UNK     0     -19.746  -2.188  -2.430  0.00  0.00     0.051 C 
BRANCH  39  40
HETATM   40  C   UNK     0     -20.844  -1.487  -3.094  0.00  0.00     0.114 C 
BRANCH  40  41
HETATM   41  C   UNK     0     -20.642  -0.257  -3.828  0.00  0.00     0.139 C 
HETATM   42  O   UNK     0     -20.624  -0.195  -5.064  0.00  0.00    -0.650 OA
BRANCH  41  43
HETATM   43  O   UNK     0     -20.453   0.955  -3.105  0.00  0.00    -0.776 OA
HETATM   44  H   UNK     0     -19.914   0.855  -2.253  0.00  0.00     0.167 HD
ENDBRANCH  41  43
ENDBRANCH  40  41
ENDBRANCH  39  40
ENDBRANCH  27  39
BRANCH  11  45
HETATM   45  C   UNK     0     -15.869  -4.544 -11.637  0.00  0.00     0.051 C 
BRANCH  45  46
HETATM   46  C   UNK     0     -15.726  -5.895 -11.038  0.00  0.00     0.114 C 
BRANCH  46  47
HETATM   47  C   UNK     0     -14.599  -6.573 -11.739  0.00  0.00     0.139 C 
HETATM   48  O   UNK     0     -14.673  -7.793 -11.938  0.00  0.00    -0.650 OA
BRANCH  47  49
HETATM   49  O   UNK     0     -13.501  -5.862 -12.155  0.00  0.00    -0.776 OA
HETATM   50  H   UNK     0     -12.586  -5.955 -11.699  0.00  0.00     0.167 HD
ENDBRANCH  47  49
ENDBRANCH  46  47
ENDBRANCH  45  46
ENDBRANCH  11  45
BRANCH  18  51
HETATM   51  C   UNK     0     -19.310  -7.054  -6.103  0.00  0.00     0.051 C 
BRANCH  51  52
HETATM   52  C   UNK     0     -17.972  -7.721  -5.824  0.00  0.00     0.114 C 
BRANCH  52  53
HETATM   53  C   UNK     0     -17.907  -9.081  -6.390  0.00  0.00     0.139 C 
HETATM   54  O   UNK     0     -17.251  -9.294  -7.423  0.00  0.00    -0.650 OA
BRANCH  53  55
HETATM   55  O   UNK     0     -18.577 -10.108  -5.772  0.00  0.00    -0.776 OA
HETATM   56  H   UNK     0     -18.428 -10.428  -4.844  0.00  0.00     0.167 HD
ENDBRANCH  53  55
ENDBRANCH  52  53
ENDBRANCH  51  52
ENDBRANCH  18  51
TORSDOF 16
ENDMDL
MODEL 17
REMARK VINA RESULT:      -8.7     30.714     34.009
REMARK  16 active torsions:
REMARK  status: ('A' for Active; 'I' for Inactive)
REMARK    1  A    between atoms: C_6  and  C_7 
REMARK    2  A    between atoms: C_7  and  C_8 
REMARK    3  A    between atoms: C_8  and  C_9 
REMARK    4  A    between atoms: C_9  and  O_11 
REMARK    5  A    between atoms: C_16  and  C_17 
REMARK    6  A    between atoms: C_17  and  C_18 
REMARK    7  A    between atoms: C_18  and  C_19 
REMARK    8  A    between atoms: C_19  and  O_21 
REMARK    9  A    between atoms: C_28  and  C_29 
REMARK   10  A    between atoms: C_29  and  C_30 
REMARK   11  A    between atoms: C_30  and  C_31 
REMARK   12  A    between atoms: C_31  and  O_33 
REMARK   13  A    between atoms: C_42  and  C_43 
REMARK   14  A    between atoms: C_43  and  C_44 
REMARK   15  A    between atoms: C_44  and  C_45 
REMARK   16  A    between atoms: C_45  and  O_47 
ROOT
HETATM    1  C   UNK     0      -9.095   3.027 -11.986  0.00  0.00     0.051 C 
HETATM    2  C   UNK     0      -9.790   1.682 -12.011  0.00  0.00    -0.031 A 
HETATM    3  C   UNK     0     -10.142   0.853 -10.957  0.00  0.00     0.021 A 
HETATM    4  N   UNK     0     -10.719  -0.268 -11.450  0.00  0.00    -0.361 N 
HETATM    5  C   UNK     0     -10.750  -0.169 -12.795  0.00  0.00     0.022 A 
HETATM    6  C   UNK     0     -10.175   1.038 -13.180  0.00  0.00    -0.027 A 
HETATM    7  C   UNK     0     -11.363  -1.090 -13.804  0.00  0.00     0.115 C 
HETATM    8  C   UNK     0     -12.732  -1.655 -13.468  0.00  0.00     0.021 A 
HETATM    9  N   UNK     0     -13.745  -1.061 -12.818  0.00  0.00    -0.361 N 
HETATM   10  C   UNK     0     -14.733  -1.967 -12.664  0.00  0.00     0.022 A 
HETATM   11  C   UNK     0     -14.350  -3.176 -13.238  0.00  0.00    -0.027 A 
HETATM   12  C   UNK     0     -13.090  -2.986 -13.746  0.00  0.00    -0.031 A 
HETATM   13  C   UNK     0     -12.272  -4.032 -14.469  0.00  0.00     0.051 C 
HETATM   14  C   UNK     0     -16.051  -1.748 -11.926  0.00  0.00     0.115 C 
HETATM   15  C   UNK     0     -15.883  -1.404 -10.455  0.00  0.00     0.021 A 
HETATM   16  N   UNK     0     -15.210  -0.365  -9.926  0.00  0.00    -0.361 N 
HETATM   17  C   UNK     0     -15.240  -0.456  -8.594  0.00  0.00     0.022 A 
HETATM   18  C   UNK     0     -15.976  -1.604  -8.239  0.00  0.00    -0.027 A 
HETATM   19  C   UNK     0     -16.374  -2.188  -9.413  0.00  0.00    -0.031 A 
HETATM   20  C   UNK     0     -17.229  -3.440  -9.485  0.00  0.00     0.051 C 
HETATM   21  C   UNK     0     -14.581   0.412  -7.546  0.00  0.00     0.115 C 
HETATM   22  C   UNK     0     -13.238   1.017  -7.885  0.00  0.00     0.022 A 
HETATM   23  N   UNK     0     -12.213   0.450  -8.533  0.00  0.00    -0.361 N 
HETATM   24  C   UNK     0     -11.272   1.393  -8.744  0.00  0.00     0.021 A 
HETATM   25  C   UNK     0     -11.698   2.593  -8.209  0.00  0.00    -0.031 A 
HETATM   26  C   UNK     0     -10.978   3.925  -8.161  0.00  0.00     0.051 C 
HETATM   27  C   UNK     0     -12.954   2.378  -7.653  0.00  0.00    -0.027 A 
HETATM   28  C   UNK     0      -9.973   1.253  -9.518  0.00  0.00     0.115 C 
HETATM   29  H   UNK     0     -11.063  -1.140 -10.847  0.00  0.00     0.165 HD
HETATM   30  H   UNK     0     -13.786   0.013 -12.512  0.00  0.00     0.165 HD
HETATM   31  H   UNK     0     -14.744   0.476 -10.502  0.00  0.00     0.165 HD
HETATM   32  H   UNK     0     -12.124  -0.633  -8.811  0.00  0.00     0.165 HD
ENDROOT
BRANCH   6  33
HETATM   33  C   UNK     0      -9.963   1.616 -14.556  0.00  0.00     0.051 C 
BRANCH  33  34
HETATM   34  C   UNK     0     -10.838   0.918 -15.571  0.00  0.00     0.114 C 
BRANCH  34  35
HETATM   35  C   UNK     0     -10.321   1.271 -16.924  0.00  0.00     0.139 C 
HETATM   36  O   UNK     0     -10.590   2.396 -17.436  0.00  0.00    -0.650 OA
BRANCH  35  37
HETATM   37  O   UNK     0      -9.534   0.405 -17.674  0.00  0.00    -0.776 OA
HETATM   38  H   UNK     0      -9.917  -0.411 -18.125  0.00  0.00     0.167 HD
ENDBRANCH  35  37
ENDBRANCH  34  35
ENDBRANCH  33  34
ENDBRANCH   6  33
BRANCH  27  39
HETATM   39  C   UNK     0     -13.706   3.430  -6.917  0.00  0.00     0.051 C 
BRANCH  39  40
HETATM   40  C   UNK     0     -13.843   3.298  -5.466  0.00  0.00     0.114 C 
BRANCH  40  41
HETATM   41  C   UNK     0     -12.957   3.972  -4.544  0.00  0.00     0.139 C 
HETATM   42  O   UNK     0     -12.749   3.582  -3.387  0.00  0.00    -0.650 OA
BRANCH  41  43
HETATM   43  O   UNK     0     -12.277   5.148  -4.973  0.00  0.00    -0.776 OA
HETATM   44  H   UNK     0     -11.340   4.987  -5.322  0.00  0.00     0.167 HD
ENDBRANCH  41  43
ENDBRANCH  40  41
ENDBRANCH  39  40
ENDBRANCH  27  39
BRANCH  11  45
HETATM   45  C   UNK     0     -15.120  -4.466 -13.319  0.00  0.00     0.051 C 
BRANCH  45  46
HETATM   46  C   UNK     0     -14.935  -5.357 -12.145  0.00  0.00     0.114 C 
BRANCH  46  47
HETATM   47  C   UNK     0     -14.798  -6.749 -12.664  0.00  0.00     0.139 C 
HETATM   48  O   UNK     0     -15.076  -6.968 -13.851  0.00  0.00    -0.650 OA
BRANCH  47  49
HETATM   49  O   UNK     0     -14.374  -7.765 -11.845  0.00  0.00    -0.776 OA
HETATM   50  H   UNK     0     -14.456  -7.712 -10.823  0.00  0.00     0.167 HD
ENDBRANCH  47  49
ENDBRANCH  46  47
ENDBRANCH  45  46
ENDBRANCH  11  45
BRANCH  18  51
HETATM   51  C   UNK     0     -16.300  -2.104  -6.855  0.00  0.00     0.051 C 
BRANCH  51  52
HETATM   52  C   UNK     0     -15.227  -3.126  -6.509  0.00  0.00     0.114 C 
BRANCH  52  53
HETATM   53  C   UNK     0     -14.164  -2.544  -5.668  0.00  0.00     0.139 C 
HETATM   54  O   UNK     0     -14.431  -2.122  -4.532  0.00  0.00    -0.650 OA
BRANCH  53  55
HETATM   55  O   UNK     0     -12.880  -2.469  -6.151  0.00  0.00    -0.776 OA
HETATM   56  H   UNK     0     -12.441  -3.128  -6.750  0.00  0.00     0.167 HD
ENDBRANCH  53  55
ENDBRANCH  52  53
ENDBRANCH  51  52
ENDBRANCH  18  51
TORSDOF 16
ENDMDL
MODEL 18
REMARK VINA RESULT:      -8.7      2.529      7.966
REMARK  16 active torsions:
REMARK  status: ('A' for Active; 'I' for Inactive)
REMARK    1  A    between atoms: C_6  and  C_7 
REMARK    2  A    between atoms: C_7  and  C_8 
REMARK    3  A    between atoms: C_8  and  C_9 
REMARK    4  A    between atoms: C_9  and  O_11 
REMARK    5  A    between atoms: C_16  and  C_17 
REMARK    6  A    between atoms: C_17  and  C_18 
REMARK    7  A    between atoms: C_18  and  C_19 
REMARK    8  A    between atoms: C_19  and  O_21 
REMARK    9  A    between atoms: C_28  and  C_29 
REMARK   10  A    between atoms: C_29  and  C_30 
REMARK   11  A    between atoms: C_30  and  C_31 
REMARK   12  A    between atoms: C_31  and  O_33 
REMARK   13  A    between atoms: C_42  and  C_43 
REMARK   14  A    between atoms: C_43  and  C_44 
REMARK   15  A    between atoms: C_44  and  C_45 
REMARK   16  A    between atoms: C_45  and  O_47 
ROOT
HETATM    1  C   UNK     0      14.383  -0.261   6.480  0.00  0.00     0.051 C 
HETATM    2  C   UNK     0      13.649  -0.293   7.805  0.00  0.00    -0.031 A 
HETATM    3  C   UNK     0      12.404  -0.822   8.109  0.00  0.00     0.021 A 
HETATM    4  N   UNK     0      12.136  -0.596   9.417  0.00  0.00    -0.361 N 
HETATM    5  C   UNK     0      13.187   0.057   9.956  0.00  0.00     0.022 A 
HETATM    6  C   UNK     0      14.150   0.265   8.974  0.00  0.00    -0.027 A 
HETATM    7  C   UNK     0      13.433   0.456  11.377  0.00  0.00     0.115 C 
HETATM    8  C   UNK     0      13.080  -0.566  12.443  0.00  0.00     0.021 A 
HETATM    9  N   UNK     0      13.193  -1.902  12.390  0.00  0.00    -0.361 N 
HETATM   10  C   UNK     0      12.675  -2.413  13.527  0.00  0.00     0.022 A 
HETATM   11  C   UNK     0      12.223  -1.376  14.339  0.00  0.00    -0.027 A 
HETATM   12  C   UNK     0      12.476  -0.210  13.662  0.00  0.00    -0.031 A 
HETATM   13  C   UNK     0      12.156   1.180  14.165  0.00  0.00     0.051 C 
HETATM   14  C   UNK     0      12.535  -3.893  13.869  0.00  0.00     0.115 C 
HETATM   15  C   UNK     0      11.658  -4.669  12.900  0.00  0.00     0.021 A 
HETATM   16  N   UNK     0      11.827  -4.811  11.572  0.00  0.00    -0.361 N 
HETATM   17  C   UNK     0      10.804  -5.507  11.071  0.00  0.00     0.022 A 
HETATM   18  C   UNK     0       9.932  -5.844  12.125  0.00  0.00    -0.027 A 
HETATM   19  C   UNK     0      10.479  -5.314  13.265  0.00  0.00    -0.031 A 
HETATM   20  C   UNK     0       9.871  -5.477  14.647  0.00  0.00     0.051 C 
HETATM   21  C   UNK     0      10.486  -5.872   9.639  0.00  0.00     0.115 C 
HETATM   22  C   UNK     0      10.871  -4.884   8.565  0.00  0.00     0.022 A 
HETATM   23  N   UNK     0      10.773  -3.548   8.592  0.00  0.00    -0.361 N 
HETATM   24  C   UNK     0      11.366  -3.057   7.485  0.00  0.00     0.021 A 
HETATM   25  C   UNK     0      11.849  -4.103   6.721  0.00  0.00    -0.031 A 
HETATM   26  C   UNK     0      12.551  -4.059   5.380  0.00  0.00     0.051 C 
HETATM   27  C   UNK     0      11.544  -5.282   7.391  0.00  0.00    -0.027 A 
HETATM   28  C   UNK     0      11.588  -1.600   7.117  0.00  0.00     0.115 C 
HETATM   29  H   UNK     0      11.190  -0.864   9.942  0.00  0.00     0.165 HD
HETATM   30  H   UNK     0      13.685  -2.486  11.573  0.00  0.00     0.165 HD
HETATM   31  H   UNK     0      12.711  -4.453  10.982  0.00  0.00     0.165 HD
HETATM   32  H   UNK     0      10.246  -2.941   9.372  0.00  0.00     0.165 HD
ENDROOT
BRANCH   6  33
HETATM   33  C   UNK     0      15.492   0.948   9.061  0.00  0.00     0.051 C 
BRANCH  33  34
HETATM   34  C   UNK     0      16.558  -0.024   9.509  0.00  0.00     0.114 C 
BRANCH  34  35
HETATM   35  C   UNK     0      17.640  -0.004   8.482  0.00  0.00     0.139 C 
HETATM   36  O   UNK     0      17.544   0.749   7.470  0.00  0.00    -0.650 OA
BRANCH  35  37
HETATM   37  O   UNK     0      18.782  -0.789   8.582  0.00  0.00    -0.776 OA
HETATM   38  H   UNK     0      18.787  -1.761   8.320  0.00  0.00     0.167 HD
ENDBRANCH  35  37
ENDBRANCH  34  35
ENDBRANCH  33  34
ENDBRANCH   6  33
BRANCH  27  39
HETATM   39  C   UNK     0      11.845  -6.630   6.838  0.00  0.00     0.051 C 
BRANCH  39  40
HETATM   40  C   UNK     0      10.972  -7.161   5.791  0.00  0.00     0.114 C 
BRANCH  40  41
HETATM   41  C   UNK     0      11.443  -7.406   4.446  0.00  0.00     0.139 C 
HETATM   42  O   UNK     0      12.599  -7.761   4.181  0.00  0.00    -0.650 OA
BRANCH  41  43
HETATM   43  O   UNK     0      10.542  -7.234   3.357  0.00  0.00    -0.776 OA
HETATM   44  H   UNK     0      10.193  -8.099   2.962  0.00  0.00     0.167 HD
ENDBRANCH  41  43
ENDBRANCH  40  41
ENDBRANCH  39  40
ENDBRANCH  27  39
BRANCH  11  45
HETATM   45  C   UNK     0      11.581  -1.455  15.698  0.00  0.00     0.051 C 
BRANCH  45  46
HETATM   46  C   UNK     0      10.112  -1.668  15.662  0.00  0.00     0.114 C 
BRANCH  46  47
HETATM   47  C   UNK     0       9.470  -0.383  16.065  0.00  0.00     0.139 C 
HETATM   48  O   UNK     0      10.040   0.325  16.906  0.00  0.00    -0.650 OA
BRANCH  47  49
HETATM   49  O   UNK     0       8.274   0.006  15.518  0.00  0.00    -0.776 OA
HETATM   50  H   UNK     0       7.400  -0.504  15.698  0.00  0.00     0.167 HD
ENDBRANCH  47  49
ENDBRANCH  46  47
ENDBRANCH  45  46
ENDBRANCH  11  45
BRANCH  18  51
HETATM   51  C   UNK     0       8.657  -6.644  12.053  0.00  0.00     0.051 C 
BRANCH  51  52
HETATM   52  C   UNK     0       7.799  -5.983  10.985  0.00  0.00     0.114 C 
BRANCH  52  53
HETATM   53  C   UNK     0       7.004  -6.971  10.229  0.00  0.00     0.139 C 
HETATM   54  O   UNK     0       7.293  -7.228   9.050  0.00  0.00    -0.650 OA
BRANCH  53  55
HETATM   55  O   UNK     0       5.944  -7.598  10.836  0.00  0.00    -0.776 OA
HETATM   56  H   UNK     0       5.996  -8.399  11.421  0.00  0.00     0.167 HD
ENDBRANCH  53  55
ENDBRANCH  52  53
ENDBRANCH  51  52
ENDBRANCH  18  51
TORSDOF 16
ENDMDL
MODEL 19
REMARK VINA RESULT:      -8.6     32.099     34.045
REMARK  16 active torsions:
REMARK  status: ('A' for Active; 'I' for Inactive)
REMARK    1  A    between atoms: C_6  and  C_7 
REMARK    2  A    between atoms: C_7  and  C_8 
REMARK    3  A    between atoms: C_8  and  C_9 
REMARK    4  A    between atoms: C_9  and  O_11 
REMARK    5  A    between atoms: C_16  and  C_17 
REMARK    6  A    between atoms: C_17  and  C_18 
REMARK    7  A    between atoms: C_18  and  C_19 
REMARK    8  A    between atoms: C_19  and  O_21 
REMARK    9  A    between atoms: C_28  and  C_29 
REMARK   10  A    between atoms: C_29  and  C_30 
REMARK   11  A    between atoms: C_30  and  C_31 
REMARK   12  A    between atoms: C_31  and  O_33 
REMARK   13  A    between atoms: C_42  and  C_43 
REMARK   14  A    between atoms: C_43  and  C_44 
REMARK   15  A    between atoms: C_44  and  C_45 
REMARK   16  A    between atoms: C_45  and  O_47 
ROOT
HETATM    1  C   UNK     0     -15.813  -7.066 -11.232  0.00  0.00     0.051 C 
HETATM    2  C   UNK     0     -15.970  -5.632 -10.769  0.00  0.00    -0.031 A 
HETATM    3  C   UNK     0     -17.025  -5.035 -10.097  0.00  0.00     0.021 A 
HETATM    4  N   UNK     0     -16.746  -3.722  -9.915  0.00  0.00    -0.361 N 
HETATM    5  C   UNK     0     -15.533  -3.471 -10.450  0.00  0.00     0.022 A 
HETATM    6  C   UNK     0     -15.020  -4.644 -10.995  0.00  0.00    -0.027 A 
HETATM    7  C   UNK     0     -14.727  -2.210 -10.433  0.00  0.00     0.115 C 
HETATM    8  C   UNK     0     -14.693  -1.440  -9.125  0.00  0.00     0.021 A 
HETATM    9  N   UNK     0     -14.687  -1.921  -7.872  0.00  0.00    -0.361 N 
HETATM   10  C   UNK     0     -14.748  -0.874  -7.021  0.00  0.00     0.022 A 
HETATM   11  C   UNK     0     -14.785   0.313  -7.746  0.00  0.00    -0.027 A 
HETATM   12  C   UNK     0     -14.751  -0.036  -9.072  0.00  0.00    -0.031 A 
HETATM   13  C   UNK     0     -14.767   0.934 -10.232  0.00  0.00     0.051 C 
HETATM   14  C   UNK     0     -14.827  -0.954  -5.499  0.00  0.00     0.115 C 
HETATM   15  C   UNK     0     -16.057  -1.684  -4.984  0.00  0.00     0.021 A 
HETATM   16  N   UNK     0     -16.429  -2.951  -5.245  0.00  0.00    -0.361 N 
HETATM   17  C   UNK     0     -17.605  -3.192  -4.661  0.00  0.00     0.022 A 
HETATM   18  C   UNK     0     -18.013  -2.029  -3.977  0.00  0.00    -0.027 A 
HETATM   19  C   UNK     0     -17.034  -1.093  -4.186  0.00  0.00    -0.031 A 
HETATM   20  C   UNK     0     -17.061   0.303  -3.590  0.00  0.00     0.051 C 
HETATM   21  C   UNK     0     -18.479  -4.425  -4.707  0.00  0.00     0.115 C 
HETATM   22  C   UNK     0     -18.488  -5.225  -5.989  0.00  0.00     0.022 A 
HETATM   23  N   UNK     0     -18.491  -4.773  -7.250  0.00  0.00    -0.361 N 
HETATM   24  C   UNK     0     -18.351  -5.828  -8.078  0.00  0.00     0.021 A 
HETATM   25  C   UNK     0     -18.267  -6.988  -7.332  0.00  0.00    -0.031 A 
HETATM   26  C   UNK     0     -18.144  -8.420  -7.809  0.00  0.00     0.051 C 
HETATM   27  C   UNK     0     -18.353  -6.628  -5.992  0.00  0.00    -0.027 A 
HETATM   28  C   UNK     0     -18.208  -5.810  -9.590  0.00  0.00     0.115 C 
HETATM   29  H   UNK     0     -17.425  -2.973  -9.446  0.00  0.00     0.165 HD
HETATM   30  H   UNK     0     -14.589  -2.996  -7.583  0.00  0.00     0.165 HD
HETATM   31  H   UNK     0     -15.828  -3.707  -5.815  0.00  0.00     0.165 HD
HETATM   32  H   UNK     0     -18.635  -3.708  -7.569  0.00  0.00     0.165 HD
ENDROOT
BRANCH   6  33
HETATM   33  C   UNK     0     -13.715  -4.893 -11.707  0.00  0.00     0.051 C 
BRANCH  33  34
HETATM   34  C   UNK     0     -13.848  -4.607 -13.184  0.00  0.00     0.114 C 
BRANCH  34  35
HETATM   35  C   UNK     0     -12.474  -4.399 -13.725  0.00  0.00     0.139 C 
HETATM   36  O   UNK     0     -11.630  -5.342 -13.699  0.00  0.00    -0.650 OA
BRANCH  35  37
HETATM   37  O   UNK     0     -12.059  -3.192 -14.273  0.00  0.00    -0.776 OA
HETATM   38  H   UNK     0     -12.601  -2.348 -14.180  0.00  0.00     0.167 HD
ENDBRANCH  35  37
ENDBRANCH  34  35
ENDBRANCH  33  34
ENDBRANCH   6  33
BRANCH  27  39
HETATM   39  C   UNK     0     -18.370  -7.622  -4.885  0.00  0.00     0.051 C 
BRANCH  39  40
HETATM   40  C   UNK     0     -17.094  -8.035  -4.302  0.00  0.00     0.114 C 
BRANCH  40  41
HETATM   41  C   UNK     0     -16.441  -9.270  -4.673  0.00  0.00     0.139 C 
HETATM   42  O   UNK     0     -17.053 -10.313  -4.940  0.00  0.00    -0.650 OA
BRANCH  41  43
HETATM   43  O   UNK     0     -15.019  -9.308  -4.739  0.00  0.00    -0.776 OA
HETATM   44  H   UNK     0     -14.617  -8.710  -5.451  0.00  0.00     0.167 HD
ENDBRANCH  41  43
ENDBRANCH  40  41
ENDBRANCH  39  40
ENDBRANCH  27  39
BRANCH  11  45
HETATM   45  C   UNK     0     -14.847   1.727  -7.234  0.00  0.00     0.051 C 
BRANCH  45  46
HETATM   46  C   UNK     0     -13.548   2.446  -7.278  0.00  0.00     0.114 C 
BRANCH  46  47
HETATM   47  C   UNK     0     -13.844   3.901  -7.145  0.00  0.00     0.139 C 
HETATM   48  O   UNK     0     -14.895   4.244  -6.586  0.00  0.00    -0.650 OA
BRANCH  47  49
HETATM   49  O   UNK     0     -12.972   4.842  -7.633  0.00  0.00    -0.776 OA
HETATM   50  H   UNK     0     -12.036   4.978  -7.233  0.00  0.00     0.167 HD
ENDBRANCH  47  49
ENDBRANCH  46  47
ENDBRANCH  45  46
ENDBRANCH  11  45
BRANCH  18  51
HETATM   51  C   UNK     0     -19.258  -1.829  -3.152  0.00  0.00     0.051 C 
BRANCH  51  52
HETATM   52  C   UNK     0     -20.356  -1.432  -4.127  0.00  0.00     0.114 C 
BRANCH  52  53
HETATM   53  C   UNK     0     -20.634   0.017  -4.082  0.00  0.00     0.139 C 
HETATM   54  O   UNK     0     -21.189   0.574  -5.042  0.00  0.00    -0.650 OA
BRANCH  53  55
HETATM   55  O   UNK     0     -20.271   0.744  -2.974  0.00  0.00    -0.776 OA
HETATM   56  H   UNK     0     -20.271   1.734  -2.900  0.00  0.00     0.167 HD
ENDBRANCH  53  55
ENDBRANCH  52  53
ENDBRANCH  51  52
ENDBRANCH  18  51
TORSDOF 16
ENDMDL
MODEL 20
REMARK VINA RESULT:      -8.5     29.842     33.714
REMARK  16 active torsions:
REMARK  status: ('A' for Active; 'I' for Inactive)
REMARK    1  A    between atoms: C_6  and  C_7 
REMARK    2  A    between atoms: C_7  and  C_8 
REMARK    3  A    between atoms: C_8  and  C_9 
REMARK    4  A    between atoms: C_9  and  O_11 
REMARK    5  A    between atoms: C_16  and  C_17 
REMARK    6  A    between atoms: C_17  and  C_18 
REMARK    7  A    between atoms: C_18  and  C_19 
REMARK    8  A    between atoms: C_19  and  O_21 
REMARK    9  A    between atoms: C_28  and  C_29 
REMARK   10  A    between atoms: C_29  and  C_30 
REMARK   11  A    between atoms: C_30  and  C_31 
REMARK   12  A    between atoms: C_31  and  O_33 
REMARK   13  A    between atoms: C_42  and  C_43 
REMARK   14  A    between atoms: C_43  and  C_44 
REMARK   15  A    between atoms: C_44  and  C_45 
REMARK   16  A    between atoms: C_45  and  O_47 
ROOT
HETATM    1  C   UNK     0     -17.977  -8.067  -4.284  0.00  0.00     0.051 C 
HETATM    2  C   UNK     0     -17.748  -7.505  -5.673  0.00  0.00    -0.031 A 
HETATM    3  C   UNK     0     -18.101  -6.269  -6.190  0.00  0.00     0.021 A 
HETATM    4  N   UNK     0     -17.724  -6.210  -7.490  0.00  0.00    -0.361 N 
HETATM    5  C   UNK     0     -17.130  -7.379  -7.809  0.00  0.00     0.022 A 
HETATM    6  C   UNK     0     -17.131  -8.213  -6.696  0.00  0.00    -0.027 A 
HETATM    7  C   UNK     0     -16.458  -7.789  -9.082  0.00  0.00     0.115 C 
HETATM    8  C   UNK     0     -15.562  -6.756  -9.743  0.00  0.00     0.021 A 
HETATM    9  N   UNK     0     -14.769  -5.842  -9.162  0.00  0.00    -0.361 N 
HETATM   10  C   UNK     0     -14.231  -5.076 -10.134  0.00  0.00     0.022 A 
HETATM   11  C   UNK     0     -14.683  -5.514 -11.376  0.00  0.00    -0.027 A 
HETATM   12  C   UNK     0     -15.522  -6.572 -11.137  0.00  0.00    -0.031 A 
HETATM   13  C   UNK     0     -16.245  -7.371 -12.197  0.00  0.00     0.051 C 
HETATM   14  C   UNK     0     -13.316  -3.872  -9.930  0.00  0.00     0.115 C 
HETATM   15  C   UNK     0     -13.952  -2.743  -9.134  0.00  0.00     0.021 A 
HETATM   16  N   UNK     0     -14.451  -2.799  -7.885  0.00  0.00    -0.361 N 
HETATM   17  C   UNK     0     -14.983  -1.615  -7.572  0.00  0.00     0.022 A 
HETATM   18  C   UNK     0     -14.814  -0.744  -8.666  0.00  0.00    -0.027 A 
HETATM   19  C   UNK     0     -14.165  -1.462  -9.637  0.00  0.00    -0.031 A 
HETATM   20  C   UNK     0     -13.752  -0.885 -10.979  0.00  0.00     0.051 C 
HETATM   21  C   UNK     0     -15.726  -1.182  -6.329  0.00  0.00     0.115 C 
HETATM   22  C   UNK     0     -16.586  -2.212  -5.636  0.00  0.00     0.022 A 
HETATM   23  N   UNK     0     -17.382  -3.137  -6.189  0.00  0.00    -0.361 N 
HETATM   24  C   UNK     0     -17.846  -3.937  -5.208  0.00  0.00     0.021 A 
HETATM   25  C   UNK     0     -17.345  -3.512  -3.993  0.00  0.00    -0.031 A 
HETATM   26  C   UNK     0     -17.609  -4.063  -2.607  0.00  0.00     0.051 C 
HETATM   27  C   UNK     0     -16.536  -2.409  -4.241  0.00  0.00    -0.027 A 
HETATM   28  C   UNK     0     -18.708  -5.180  -5.352  0.00  0.00     0.115 C 
HETATM   29  H   UNK     0     -17.915  -5.359  -8.183  0.00  0.00     0.165 HD
HETATM   30  H   UNK     0     -14.548  -5.767  -8.069  0.00  0.00     0.165 HD
HETATM   31  H   UNK     0     -14.385  -3.677  -7.191  0.00  0.00     0.165 HD
HETATM   32  H   UNK     0     -17.659  -3.206  -7.273  0.00  0.00     0.165 HD
ENDROOT
BRANCH   6  33
HETATM   33  C   UNK     0     -16.599  -9.615  -6.533  0.00  0.00     0.051 C 
BRANCH  33  34
HETATM   34  C   UNK     0     -17.552 -10.621  -7.133  0.00  0.00     0.114 C 
BRANCH  34  35
HETATM   35  C   UNK     0     -16.797 -11.394  -8.161  0.00  0.00     0.139 C 
HETATM   36  O   UNK     0     -17.411 -11.954  -9.115  0.00  0.00    -0.650 OA
BRANCH  35  37
HETATM   37  O   UNK     0     -15.415 -11.532  -8.128  0.00  0.00    -0.776 OA
HETATM   38  H   UNK     0     -14.799 -10.739  -8.047  0.00  0.00     0.167 HD
ENDBRANCH  35  37
ENDBRANCH  34  35
ENDBRANCH  33  34
ENDBRANCH   6  33
BRANCH  27  39
HETATM   39  C   UNK     0     -15.873  -1.630  -3.160  0.00  0.00     0.051 C 
BRANCH  39  40
HETATM   40  C   UNK     0     -14.453  -1.867  -2.904  0.00  0.00     0.114 C 
BRANCH  40  41
HETATM   41  C   UNK     0     -13.628  -0.914  -2.196  0.00  0.00     0.139 C 
HETATM   42  O   UNK     0     -13.684   0.310  -2.382  0.00  0.00    -0.650 OA
BRANCH  41  43
HETATM   43  O   UNK     0     -12.696  -1.389  -1.231  0.00  0.00    -0.776 OA
HETATM   44  H   UNK     0     -12.328  -0.674  -0.616  0.00  0.00     0.167 HD
ENDBRANCH  41  43
ENDBRANCH  40  41
ENDBRANCH  39  40
ENDBRANCH  27  39
BRANCH  11  45
HETATM   45  C   UNK     0     -14.350  -4.976 -12.742  0.00  0.00     0.051 C 
BRANCH  45  46
HETATM   46  C   UNK     0     -13.263  -5.714 -13.435  0.00  0.00     0.114 C 
BRANCH  46  47
HETATM   47  C   UNK     0     -12.193  -4.726 -13.755  0.00  0.00     0.139 C 
HETATM   48  O   UNK     0     -11.015  -5.109 -13.756  0.00  0.00    -0.650 OA
BRANCH  47  49
HETATM   49  O   UNK     0     -12.504  -3.421 -14.039  0.00  0.00    -0.776 OA
HETATM   50  H   UNK     0     -13.316  -3.167 -14.614  0.00  0.00     0.167 HD
ENDBRANCH  47  49
ENDBRANCH  46  47
ENDBRANCH  45  46
ENDBRANCH  11  45
BRANCH  18  51
HETATM   51  C   UNK     0     -15.228   0.701  -8.772  0.00  0.00     0.051 C 
BRANCH  51  52
HETATM   52  C   UNK     0     -14.106   1.513  -8.143  0.00  0.00     0.114 C 
BRANCH  52  53
HETATM   53  C   UNK     0     -14.626   2.628  -7.327  0.00  0.00     0.139 C 
HETATM   54  O   UNK     0     -14.860   2.459  -6.120  0.00  0.00    -0.650 OA
BRANCH  53  55
HETATM   55  O   UNK     0     -14.852   3.850  -7.912  0.00  0.00    -0.776 OA
HETATM   56  H   UNK     0     -14.585   4.117  -8.831  0.00  0.00     0.167 HD
ENDBRANCH  53  55
ENDBRANCH  52  53
ENDBRANCH  51  52
ENDBRANCH  18  51
TORSDOF 16
ENDMDL
