MODEL 1
REMARK VINA RESULT:     -10.1      0.000      0.000
REMARK  28 active torsions:
REMARK  status: ('A' for Active; 'I' for Inactive)
REMARK    1  A    between atoms: C_2  and  O_3 
REMARK    2  A    between atoms: C_2  and  C_4 
REMARK    3  A    between atoms: C_4  and  C_5 
REMARK    4  A    between atoms: C_5  and  C_6 
REMARK    5  A    between atoms: C_7  and  C_8 
REMARK    6  A    between atoms: C_8  and  C_9 
REMARK    7  A    between atoms: C_9  and  O_11 
REMARK    8  A    between atoms: C_28  and  C_29 
REMARK    9  A    between atoms: C_29  and  C_30 
REMARK   10  A    between atoms: C_30  and  O_32 
REMARK   11  A    between atoms: C_33  and  C_34 
REMARK   12  A    between atoms: C_34  and  C_35 
REMARK   13  A    between atoms: C_35  and  C_36 
REMARK   14  A    between atoms: C_36  and  O_38 
REMARK   15  A    between atoms: C_39  and  C_40 
REMARK   16  A    between atoms: C_40  and  C_41 
REMARK   17  A    between atoms: C_41  and  C_42 
REMARK   18  A    between atoms: C_42  and  O_44 
REMARK   19  A    between atoms: C_45  and  C_46 
REMARK   20  A    between atoms: C_46  and  C_47 
REMARK   21  A    between atoms: C_47  and  O_49 
REMARK   22  A    between atoms: C_50  and  C_51 
REMARK   23  A    between atoms: C_51  and  C_52 
REMARK   24  A    between atoms: C_52  and  O_54 
REMARK   25  A    between atoms: C_55  and  C_56 
REMARK   26  A    between atoms: C_56  and  C_57 
REMARK   27  A    between atoms: C_57  and  C_58 
REMARK   28  A    between atoms: C_58  and  O_60 
ROOT
ATOM      1  O   UNK d   0      37.158   1.192  47.907  0.00  0.00    -0.650 OA
ATOM      2  C   UNK d   0      36.918   0.057  48.376  0.00  0.00     0.139 C 
ENDROOT
BRANCH   2   3
ATOM      3  O   UNK d   0      36.807  -0.099  49.737  0.00  0.00    -0.776 OA
ATOM      4  H   UNK d   0      37.006   0.674  50.375  0.00  0.00     0.167 HD
ENDBRANCH   2   3
BRANCH   2   5
ATOM      5  C   UNK d   0      36.754  -1.110  47.464  0.00  0.00     0.115 C 
BRANCH   5   6
ATOM      6  C   UNK d   0      35.346  -1.634  47.541  0.00  0.00     0.052 C 
BRANCH   6   7
ATOM      7  C   UNK d   0      34.610  -1.517  46.228  0.00  0.00    -0.020 A 
ATOM      8  C   UNK d   0      33.958  -0.479  45.768  0.00  0.00    -0.011 A 
ATOM      9  C   UNK d   0      33.408  -0.838  44.471  0.00  0.00     0.067 A 
ATOM     10  C   UNK d   0      32.652  -0.195  43.479  0.00  0.00     0.062 C 
ATOM     11  N   UNK d   0      33.770  -2.115  44.222  0.00  0.00    -0.248 NA
ATOM     12  C   UNK d   0      32.451  -0.618  42.160  0.00  0.00     0.041 A 
ATOM     13  N   UNK d   0      32.186  -1.836  41.650  0.00  0.00    -0.355 N 
ATOM     14  C   UNK d   0      32.582   0.318  41.118  0.00  0.00    -0.022 A 
ATOM     15  C   UNK d   0      32.154  -1.698  40.311  0.00  0.00     0.042 A 
ATOM     16  H   UNK d   0      32.007  -2.770  42.226  0.00  0.00     0.166 HD
ATOM     17  C   UNK d   0      31.918  -2.651  39.301  0.00  0.00     0.062 C 
ATOM     18  C   UNK d   0      32.398  -0.362  39.940  0.00  0.00    -0.013 A 
ATOM     19  C   UNK d   0      32.425  -3.920  39.176  0.00  0.00     0.067 A 
ATOM     20  N   UNK d   0      33.074  -4.418  40.232  0.00  0.00    -0.248 NA
ATOM     21  C   UNK d   0      32.463  -4.932  38.134  0.00  0.00    -0.011 A 
ATOM     22  C   UNK d   0      33.535  -5.682  39.955  0.00  0.00     0.066 A 
ATOM     23  C   UNK d   0      34.198  -6.335  40.983  0.00  0.00     0.062 C 
ATOM     24  C   UNK d   0      33.117  -5.959  38.594  0.00  0.00    -0.020 A 
ATOM     25  C   UNK d   0      34.379  -5.898  42.305  0.00  0.00     0.041 A 
ATOM     26  N   UNK d   0      34.656  -4.691  42.811  0.00  0.00    -0.355 N 
ATOM     27  C   UNK d   0      34.243  -6.838  43.350  0.00  0.00    -0.022 A 
ATOM     28  C   UNK d   0      34.698  -4.827  44.145  0.00  0.00     0.042 A 
ATOM     29  H   UNK d   0      34.847  -3.755  42.230  0.00  0.00     0.166 HD
ATOM     30  C   UNK d   0      34.941  -3.890  45.162  0.00  0.00     0.062 C 
ATOM     31  C   UNK d   0      34.443  -6.168  44.518  0.00  0.00    -0.013 A 
ATOM     32  C   UNK d   0      34.495  -2.580  45.241  0.00  0.00     0.066 A 
BRANCH   8  33
ATOM     33  C   UNK d   0      33.793   0.827  46.431  0.00  0.00     0.151 C 
BRANCH  33  34
ATOM     34  C   UNK d   0      34.500   1.915  45.733  0.00  0.00     0.143 C 
ATOM     35  O   UNK d   0      34.494   1.987  44.496  0.00  0.00    -0.650 OA
BRANCH  34  36
ATOM     36  O   UNK d   0      35.175   2.862  46.467  0.00  0.00    -0.776 OA
ATOM     37  H   UNK d   0      35.993   3.355  46.081  0.00  0.00     0.167 HD
ENDBRANCH  34  36
ENDBRANCH  33  34
ENDBRANCH   8  33
BRANCH  31  38
ATOM     38  C   UNK d   0      34.382  -6.760  45.907  0.00  0.00     0.151 C 
BRANCH  38  39
ATOM     39  C   UNK d   0      33.148  -6.450  46.597  0.00  0.00     0.143 C 
ATOM     40  O   UNK d   0      33.130  -5.976  47.746  0.00  0.00    -0.650 OA
BRANCH  39  41
ATOM     41  O   UNK d   0      31.929  -6.684  45.961  0.00  0.00    -0.776 OA
ATOM     42  H   UNK d   0      31.961  -6.858  44.952  0.00  0.00     0.167 HD
ENDBRANCH  39  41
ENDBRANCH  38  39
ENDBRANCH  31  38
BRANCH  27  43
ATOM     43  C   UNK d   0      33.939  -8.313  43.280  0.00  0.00     0.052 C 
BRANCH  43  44
ATOM     44  C   UNK d   0      32.483  -8.624  43.406  0.00  0.00     0.115 C 
BRANCH  44  45
ATOM     45  C   UNK d   0      32.378  -9.812  44.292  0.00  0.00     0.139 C 
ATOM     46  O   UNK d   0      32.247 -10.940  43.756  0.00  0.00    -0.650 OA
BRANCH  45  47
ATOM     47  O   UNK d   0      32.423  -9.725  45.667  0.00  0.00    -0.776 OA
ATOM     48  H   UNK d   0      31.847 -10.320  46.285  0.00  0.00     0.167 HD
ENDBRANCH  45  47
ENDBRANCH  44  45
ENDBRANCH  43  44
ENDBRANCH  27  43
BRANCH  24  49
ATOM     49  C   UNK d   0      33.360  -7.225  37.882  0.00  0.00     0.052 C 
BRANCH  49  50
ATOM     50  C   UNK d   0      34.838  -7.437  37.677  0.00  0.00     0.115 C 
BRANCH  50  51
ATOM     51  C   UNK d   0      35.483  -6.656  36.631  0.00  0.00     0.139 C 
ATOM     52  O   UNK d   0      36.729  -6.574  36.519  0.00  0.00    -0.650 OA
BRANCH  51  53
ATOM     53  O   UNK d   0      34.707  -5.965  35.713  0.00  0.00    -0.776 OA
ATOM     54  H   UNK d   0      35.111  -5.169  35.252  0.00  0.00     0.167 HD
ENDBRANCH  51  53
ENDBRANCH  50  51
ENDBRANCH  49  50
ENDBRANCH  24  49
BRANCH  21  55
ATOM     55  C   UNK d   0      31.838  -4.769  36.788  0.00  0.00     0.151 C 
BRANCH  55  56
ATOM     56  C   UNK d   0      30.381  -4.972  36.829  0.00  0.00     0.143 C 
ATOM     57  O   UNK d   0      29.565  -4.039  36.696  0.00  0.00    -0.650 OA
BRANCH  56  58
ATOM     58  O   UNK d   0      29.912  -6.271  37.024  0.00  0.00    -0.776 OA
ATOM     59  H   UNK d   0      29.672  -6.782  36.156  0.00  0.00     0.167 HD
ENDBRANCH  56  58
ENDBRANCH  55  56
ENDBRANCH  21  55
BRANCH  18  60
ATOM     60  C   UNK d   0      32.461   0.257  38.566  0.00  0.00     0.151 C 
BRANCH  60  61
ATOM     61  C   UNK d   0      31.064   0.454  38.147  0.00  0.00     0.143 C 
ATOM     62  O   UNK d   0      30.399  -0.279  37.416  0.00  0.00    -0.650 OA
BRANCH  61  63
ATOM     63  O   UNK d   0      30.442   1.620  38.654  0.00  0.00    -0.776 OA
ATOM     64  H   UNK d   0      30.969   2.312  39.157  0.00  0.00     0.167 HD
ENDBRANCH  61  63
ENDBRANCH  60  61
ENDBRANCH  18  60
BRANCH  14  65
ATOM     65  C   UNK d   0      32.767   1.808  41.156  0.00  0.00     0.052 C 
BRANCH  65  66
ATOM     66  C   UNK d   0      31.562   2.533  41.640  0.00  0.00     0.115 C 
BRANCH  66  67
ATOM     67  C   UNK d   0      31.715   3.728  42.421  0.00  0.00     0.139 C 
ATOM     68  O   UNK d   0      31.432   4.858  41.877  0.00  0.00    -0.650 OA
BRANCH  67  69
ATOM     69  O   UNK d   0      32.147   3.833  43.743  0.00  0.00    -0.776 OA
ATOM     70  H   UNK d   0      32.769   3.081  44.072  0.00  0.00     0.167 HD
ENDBRANCH  67  69
ENDBRANCH  66  67
ENDBRANCH  65  66
ENDBRANCH  14  65
ENDBRANCH   6   7
ENDBRANCH   5   6
ENDBRANCH   2   5
TORSDOF 28
ENDMDL
MODEL 2
REMARK VINA RESULT:      -9.7     28.455     32.013
REMARK  28 active torsions:
REMARK  status: ('A' for Active; 'I' for Inactive)
REMARK    1  A    between atoms: C_2  and  O_3 
REMARK    2  A    between atoms: C_2  and  C_4 
REMARK    3  A    between atoms: C_4  and  C_5 
REMARK    4  A    between atoms: C_5  and  C_6 
REMARK    5  A    between atoms: C_7  and  C_8 
REMARK    6  A    between atoms: C_8  and  C_9 
REMARK    7  A    between atoms: C_9  and  O_11 
REMARK    8  A    between atoms: C_28  and  C_29 
REMARK    9  A    between atoms: C_29  and  C_30 
REMARK   10  A    between atoms: C_30  and  O_32 
REMARK   11  A    between atoms: C_33  and  C_34 
REMARK   12  A    between atoms: C_34  and  C_35 
REMARK   13  A    between atoms: C_35  and  C_36 
REMARK   14  A    between atoms: C_36  and  O_38 
REMARK   15  A    between atoms: C_39  and  C_40 
REMARK   16  A    between atoms: C_40  and  C_41 
REMARK   17  A    between atoms: C_41  and  C_42 
REMARK   18  A    between atoms: C_42  and  O_44 
REMARK   19  A    between atoms: C_45  and  C_46 
REMARK   20  A    between atoms: C_46  and  C_47 
REMARK   21  A    between atoms: C_47  and  O_49 
REMARK   22  A    between atoms: C_50  and  C_51 
REMARK   23  A    between atoms: C_51  and  C_52 
REMARK   24  A    between atoms: C_52  and  O_54 
REMARK   25  A    between atoms: C_55  and  C_56 
REMARK   26  A    between atoms: C_56  and  C_57 
REMARK   27  A    between atoms: C_57  and  C_58 
REMARK   28  A    between atoms: C_58  and  O_60 
ROOT
ATOM      1  O   UNK d   0       3.282   4.074  50.192  0.00  0.00    -0.650 OA
ATOM      2  C   UNK d   0       4.315   4.415  50.810  0.00  0.00     0.139 C 
ENDROOT
BRANCH   2   3
ATOM      3  O   UNK d   0       4.218   4.792  52.128  0.00  0.00    -0.776 OA
ATOM      4  H   UNK d   0       4.209   5.779  52.394  0.00  0.00     0.167 HD
ENDBRANCH   2   3
BRANCH   2   5
ATOM      5  C   UNK d   0       5.635   4.410  50.119  0.00  0.00     0.115 C 
BRANCH   5   6
ATOM      6  C   UNK d   0       5.735   3.222  49.201  0.00  0.00     0.052 C 
BRANCH   6   7
ATOM      7  C   UNK d   0       5.349   3.552  47.779  0.00  0.00    -0.020 A 
ATOM      8  C   UNK d   0       5.185   2.720  46.783  0.00  0.00    -0.011 A 
ATOM      9  C   UNK d   0       4.824   3.497  45.609  0.00  0.00     0.067 A 
ATOM     10  C   UNK d   0       4.502   3.221  44.271  0.00  0.00     0.062 C 
ATOM     11  N   UNK d   0       4.797   4.795  45.980  0.00  0.00    -0.248 NA
ATOM     12  C   UNK d   0       3.906   4.085  43.347  0.00  0.00     0.041 A 
ATOM     13  N   UNK d   0       4.123   5.388  43.083  0.00  0.00    -0.355 N 
ATOM     14  C   UNK d   0       2.849   3.606  42.551  0.00  0.00    -0.022 A 
ATOM     15  C   UNK d   0       3.226   5.749  42.146  0.00  0.00     0.042 A 
ATOM     16  H   UNK d   0       4.907   6.033  43.536  0.00  0.00     0.166 HD
ATOM     17  C   UNK d   0       3.016   6.992  41.515  0.00  0.00     0.062 C 
ATOM     18  C   UNK d   0       2.410   4.659  41.787  0.00  0.00    -0.013 A 
ATOM     19  C   UNK d   0       2.967   8.244  42.071  0.00  0.00     0.067 A 
ATOM     20  N   UNK d   0       3.360   8.357  43.342  0.00  0.00    -0.248 NA
ATOM     21  C   UNK d   0       2.563   9.569  41.629  0.00  0.00    -0.011 A 
ATOM     22  C   UNK d   0       3.242   9.659  43.764  0.00  0.00     0.066 A 
ATOM     23  C   UNK d   0       3.654   9.926  45.061  0.00  0.00     0.062 C 
ATOM     24  C   UNK d   0       2.723  10.391  42.626  0.00  0.00    -0.020 A 
ATOM     25  C   UNK d   0       4.263   9.047  45.969  0.00  0.00     0.041 A 
ATOM     26  N   UNK d   0       4.037   7.756  46.242  0.00  0.00    -0.355 N 
ATOM     27  C   UNK d   0       5.326   9.527  46.765  0.00  0.00    -0.022 A 
ATOM     28  C   UNK d   0       4.924   7.395  47.183  0.00  0.00     0.042 A 
ATOM     29  H   UNK d   0       3.241   7.111  45.794  0.00  0.00     0.166 HD
ATOM     30  C   UNK d   0       5.139   6.166  47.826  0.00  0.00     0.062 C 
ATOM     31  C   UNK d   0       5.751   8.488  47.535  0.00  0.00    -0.013 A 
ATOM     32  C   UNK d   0       5.103   4.895  47.275  0.00  0.00     0.066 A 
BRANCH   8  33
ATOM     33  C   UNK d   0       5.339   1.254  46.820  0.00  0.00     0.151 C 
BRANCH  33  34
ATOM     34  C   UNK d   0       4.119   0.541  46.399  0.00  0.00     0.143 C 
ATOM     35  O   UNK d   0       3.047   0.705  46.999  0.00  0.00    -0.650 OA
BRANCH  34  36
ATOM     36  O   UNK d   0       4.176  -0.318  45.326  0.00  0.00    -0.776 OA
ATOM     37  H   UNK d   0       3.336  -0.536  44.772  0.00  0.00     0.167 HD
ENDBRANCH  34  36
ENDBRANCH  33  34
ENDBRANCH   8  33
BRANCH  31  38
ATOM     38  C   UNK d   0       6.882   8.525  48.536  0.00  0.00     0.151 C 
BRANCH  38  39
ATOM     39  C   UNK d   0       8.046   7.786  48.096  0.00  0.00     0.143 C 
ATOM     40  O   UNK d   0       9.028   8.342  47.573  0.00  0.00    -0.650 OA
BRANCH  39  41
ATOM     41  O   UNK d   0       8.082   6.402  48.257  0.00  0.00    -0.776 OA
ATOM     42  H   UNK d   0       8.991   5.987  48.486  0.00  0.00     0.167 HD
ENDBRANCH  39  41
ENDBRANCH  38  39
ENDBRANCH  31  38
BRANCH  27  43
ATOM     43  C   UNK d   0       5.936  10.905  46.818  0.00  0.00     0.052 C 
BRANCH  43  44
ATOM     44  C   UNK d   0       7.392  10.921  46.484  0.00  0.00     0.115 C 
BRANCH  44  45
ATOM     45  C   UNK d   0       8.062  11.723  47.540  0.00  0.00     0.139 C 
ATOM     46  O   UNK d   0       7.697  12.915  47.698  0.00  0.00    -0.650 OA
BRANCH  45  47
ATOM     47  O   UNK d   0       9.055  11.214  48.348  0.00  0.00    -0.776 OA
ATOM     48  H   UNK d   0       8.892  10.448  49.021  0.00  0.00     0.167 HD
ENDBRANCH  45  47
ENDBRANCH  44  45
ENDBRANCH  43  44
ENDBRANCH  27  43
BRANCH  24  49
ATOM     49  C   UNK d   0       2.471  11.842  42.603  0.00  0.00     0.052 C 
BRANCH  49  50
ATOM     50  C   UNK d   0       3.647  12.588  43.180  0.00  0.00     0.115 C 
BRANCH  50  51
ATOM     51  C   UNK d   0       3.403  13.397  44.366  0.00  0.00     0.139 C 
ATOM     52  O   UNK d   0       2.428  13.203  45.130  0.00  0.00    -0.650 OA
BRANCH  51  53
ATOM     53  O   UNK d   0       4.271  14.432  44.681  0.00  0.00    -0.776 OA
ATOM     54  H   UNK d   0       3.971  15.116  45.353  0.00  0.00     0.167 HD
ENDBRANCH  51  53
ENDBRANCH  50  51
ENDBRANCH  49  50
ENDBRANCH  24  49
BRANCH  21  55
ATOM     55  C   UNK d   0       2.065   9.875  40.256  0.00  0.00     0.151 C 
BRANCH  55  56
ATOM     56  C   UNK d   0       0.811   9.168  39.954  0.00  0.00     0.143 C 
ATOM     57  O   UNK d   0       0.563   8.682  38.833  0.00  0.00    -0.650 OA
BRANCH  56  58
ATOM     58  O   UNK d   0      -0.128   9.046  40.977  0.00  0.00    -0.776 OA
ATOM     59  H   UNK d   0      -0.994   9.599  40.842  0.00  0.00     0.167 HD
ENDBRANCH  56  58
ENDBRANCH  55  56
ENDBRANCH  21  55
BRANCH  18  60
ATOM     60  C   UNK d   0       1.278   4.592  40.792  0.00  0.00     0.151 C 
BRANCH  60  61
ATOM     61  C   UNK d   0       0.074   5.016  41.521  0.00  0.00     0.143 C 
ATOM     62  O   UNK d   0      -0.421   4.480  42.513  0.00  0.00    -0.650 OA
BRANCH  61  63
ATOM     63  O   UNK d   0      -0.568   6.168  41.006  0.00  0.00    -0.776 OA
ATOM     64  H   UNK d   0      -1.563   6.190  40.871  0.00  0.00     0.167 HD
ENDBRANCH  61  63
ENDBRANCH  60  61
ENDBRANCH  18  60
BRANCH  14  65
ATOM     65  C   UNK d   0       2.295   2.220  42.388  0.00  0.00     0.052 C 
BRANCH  65  66
ATOM     66  C   UNK d   0       3.045   1.406  41.393  0.00  0.00     0.115 C 
BRANCH  66  67
ATOM     67  C   UNK d   0       2.783  -0.001  41.282  0.00  0.00     0.139 C 
ATOM     68  O   UNK d   0       3.782  -0.808  41.221  0.00  0.00    -0.650 OA
BRANCH  67  69
ATOM     69  O   UNK d   0       1.543  -0.636  41.228  0.00  0.00    -0.776 OA
ATOM     70  H   UNK d   0       1.128  -0.887  42.137  0.00  0.00     0.167 HD
ENDBRANCH  67  69
ENDBRANCH  66  67
ENDBRANCH  65  66
ENDBRANCH  14  65
ENDBRANCH   6   7
ENDBRANCH   5   6
ENDBRANCH   2   5
TORSDOF 28
ENDMDL
MODEL 3
REMARK VINA RESULT:      -9.5     28.692     32.279
REMARK  28 active torsions:
REMARK  status: ('A' for Active; 'I' for Inactive)
REMARK    1  A    between atoms: C_2  and  O_3 
REMARK    2  A    between atoms: C_2  and  C_4 
REMARK    3  A    between atoms: C_4  and  C_5 
REMARK    4  A    between atoms: C_5  and  C_6 
REMARK    5  A    between atoms: C_7  and  C_8 
REMARK    6  A    between atoms: C_8  and  C_9 
REMARK    7  A    between atoms: C_9  and  O_11 
REMARK    8  A    between atoms: C_28  and  C_29 
REMARK    9  A    between atoms: C_29  and  C_30 
REMARK   10  A    between atoms: C_30  and  O_32 
REMARK   11  A    between atoms: C_33  and  C_34 
REMARK   12  A    between atoms: C_34  and  C_35 
REMARK   13  A    between atoms: C_35  and  C_36 
REMARK   14  A    between atoms: C_36  and  O_38 
REMARK   15  A    between atoms: C_39  and  C_40 
REMARK   16  A    between atoms: C_40  and  C_41 
REMARK   17  A    between atoms: C_41  and  C_42 
REMARK   18  A    between atoms: C_42  and  O_44 
REMARK   19  A    between atoms: C_45  and  C_46 
REMARK   20  A    between atoms: C_46  and  C_47 
REMARK   21  A    between atoms: C_47  and  O_49 
REMARK   22  A    between atoms: C_50  and  C_51 
REMARK   23  A    between atoms: C_51  and  C_52 
REMARK   24  A    between atoms: C_52  and  O_54 
REMARK   25  A    between atoms: C_55  and  C_56 
REMARK   26  A    between atoms: C_56  and  C_57 
REMARK   27  A    between atoms: C_57  and  C_58 
REMARK   28  A    between atoms: C_58  and  O_60 
ROOT
ATOM      1  O   UNK d   0       6.688   4.811  51.147  0.00  0.00    -0.650 OA
ATOM      2  C   UNK d   0       5.462   4.561  51.106  0.00  0.00     0.139 C 
ENDROOT
BRANCH   2   3
ATOM      3  O   UNK d   0       4.734   4.569  52.271  0.00  0.00    -0.776 OA
ATOM      4  H   UNK d   0       4.565   3.707  52.794  0.00  0.00     0.167 HD
ENDBRANCH   2   3
BRANCH   2   5
ATOM      5  C   UNK d   0       4.804   4.256  49.804  0.00  0.00     0.115 C 
BRANCH   5   6
ATOM      6  C   UNK d   0       5.842   3.949  48.758  0.00  0.00     0.052 C 
BRANCH   6   7
ATOM      7  C   UNK d   0       5.320   4.124  47.352  0.00  0.00    -0.020 A 
ATOM      8  C   UNK d   0       5.132   3.195  46.450  0.00  0.00    -0.011 A 
ATOM      9  C   UNK d   0       4.626   3.838  45.249  0.00  0.00     0.067 A 
ATOM     10  C   UNK d   0       4.216   3.421  43.973  0.00  0.00     0.062 C 
ATOM     11  N   UNK d   0       4.541   5.160  45.507  0.00  0.00    -0.248 NA
ATOM     12  C   UNK d   0       3.489   4.160  43.033  0.00  0.00     0.041 A 
ATOM     13  N   UNK d   0       3.596   5.443  42.639  0.00  0.00    -0.355 N 
ATOM     14  C   UNK d   0       2.406   3.547  42.376  0.00  0.00    -0.022 A 
ATOM     15  C   UNK d   0       2.604   5.663  41.756  0.00  0.00     0.042 A 
ATOM     16  H   UNK d   0       4.369   6.173  42.965  0.00  0.00     0.166 HD
ATOM     17  C   UNK d   0       2.260   6.827  41.040  0.00  0.00     0.062 C 
ATOM     18  C   UNK d   0       1.837   4.497  41.565  0.00  0.00    -0.013 A 
ATOM     19  C   UNK d   0       2.172   8.120  41.488  0.00  0.00     0.067 A 
ATOM     20  N   UNK d   0       2.658   8.373  42.706  0.00  0.00    -0.248 NA
ATOM     21  C   UNK d   0       1.646   9.372  40.970  0.00  0.00    -0.011 A 
ATOM     22  C   UNK d   0       2.487   9.698  43.022  0.00  0.00     0.066 A 
ATOM     23  C   UNK d   0       2.985  10.108  44.250  0.00  0.00     0.062 C 
ATOM     24  C   UNK d   0       1.830  10.291  41.874  0.00  0.00    -0.020 A 
ATOM     25  C   UNK d   0       3.723   9.354  45.175  0.00  0.00     0.041 A 
ATOM     26  N   UNK d   0       3.608   8.082  45.577  0.00  0.00    -0.355 N 
ATOM     27  C   UNK d   0       4.813   9.968  45.830  0.00  0.00    -0.022 A 
ATOM     28  C   UNK d   0       4.590   7.863  46.465  0.00  0.00     0.042 A 
ATOM     29  H   UNK d   0       2.824   7.353  45.257  0.00  0.00     0.166 HD
ATOM     30  C   UNK d   0       4.939   6.713  47.191  0.00  0.00     0.062 C 
ATOM     31  C   UNK d   0       5.367   9.032  46.648  0.00  0.00    -0.013 A 
ATOM     32  C   UNK d   0       4.944   5.397  46.756  0.00  0.00     0.066 A 
BRANCH   8  33
ATOM     33  C   UNK d   0       5.387   1.751  46.600  0.00  0.00     0.151 C 
BRANCH  33  34
ATOM     34  C   UNK d   0       4.198   0.929  46.314  0.00  0.00     0.143 C 
ATOM     35  O   UNK d   0       3.224   0.928  47.081  0.00  0.00    -0.650 OA
BRANCH  34  36
ATOM     36  O   UNK d   0       4.171   0.151  45.179  0.00  0.00    -0.776 OA
ATOM     37  H   UNK d   0       4.574   0.485  44.293  0.00  0.00     0.167 HD
ENDBRANCH  34  36
ENDBRANCH  33  34
ENDBRANCH   8  33
BRANCH  31  38
ATOM     38  C   UNK d   0       6.571   9.228  47.540  0.00  0.00     0.151 C 
BRANCH  38  39
ATOM     39  C   UNK d   0       7.809   8.817  46.911  0.00  0.00     0.143 C 
ATOM     40  O   UNK d   0       8.661   8.134  47.505  0.00  0.00    -0.650 OA
BRANCH  39  41
ATOM     41  O   UNK d   0       8.067   9.194  45.594  0.00  0.00    -0.776 OA
ATOM     42  H   UNK d   0       9.026   9.065  45.257  0.00  0.00     0.167 HD
ENDBRANCH  39  41
ENDBRANCH  38  39
ENDBRANCH  31  38
BRANCH  27  43
ATOM     43  C   UNK d   0       5.331  11.379  45.711  0.00  0.00     0.052 C 
BRANCH  43  44
ATOM     44  C   UNK d   0       4.354  12.409  46.179  0.00  0.00     0.115 C 
BRANCH  44  45
ATOM     45  C   UNK d   0       4.769  13.697  45.567  0.00  0.00     0.139 C 
ATOM     46  O   UNK d   0       4.198  14.061  44.509  0.00  0.00    -0.650 OA
BRANCH  45  47
ATOM     47  O   UNK d   0       5.744  14.504  46.112  0.00  0.00    -0.776 OA
ATOM     48  H   UNK d   0       5.806  15.517  45.919  0.00  0.00     0.167 HD
ENDBRANCH  45  47
ENDBRANCH  44  45
ENDBRANCH  43  44
ENDBRANCH  27  43
BRANCH  24  49
ATOM     49  C   UNK d   0       1.480  11.716  41.748  0.00  0.00     0.052 C 
BRANCH  49  50
ATOM     50  C   UNK d   0       2.508  12.437  40.915  0.00  0.00     0.115 C 
BRANCH  50  51
ATOM     51  C   UNK d   0       3.895  12.015  41.060  0.00  0.00     0.139 C 
ATOM     52  O   UNK d   0       4.531  11.452  40.138  0.00  0.00    -0.650 OA
BRANCH  51  53
ATOM     53  O   UNK d   0       4.557  12.235  42.258  0.00  0.00    -0.776 OA
ATOM     54  H   UNK d   0       4.019  12.226  43.107  0.00  0.00     0.167 HD
ENDBRANCH  51  53
ENDBRANCH  50  51
ENDBRANCH  49  50
ENDBRANCH  24  49
BRANCH  21  55
ATOM     55  C   UNK d   0       1.018   9.520  39.623  0.00  0.00     0.151 C 
BRANCH  55  56
ATOM     56  C   UNK d   0       2.005   9.404  38.539  0.00  0.00     0.143 C 
ATOM     57  O   UNK d   0       2.269   8.321  37.980  0.00  0.00    -0.650 OA
BRANCH  56  58
ATOM     58  O   UNK d   0       2.662  10.563  38.132  0.00  0.00    -0.776 OA
ATOM     59  H   UNK d   0       2.132  11.155  37.468  0.00  0.00     0.167 HD
ENDBRANCH  56  58
ENDBRANCH  55  56
ENDBRANCH  21  55
BRANCH  18  60
ATOM     60  C   UNK d   0       0.635   4.272  40.681  0.00  0.00     0.151 C 
BRANCH  60  61
ATOM     61  C   UNK d   0      -0.541   4.544  41.521  0.00  0.00     0.143 C 
ATOM     62  O   UNK d   0      -0.919   5.640  41.937  0.00  0.00    -0.650 OA
BRANCH  61  63
ATOM     63  O   UNK d   0      -1.305   3.406  41.876  0.00  0.00    -0.776 OA
ATOM     64  H   UNK d   0      -1.729   3.328  42.783  0.00  0.00     0.167 HD
ENDBRANCH  61  63
ENDBRANCH  60  61
ENDBRANCH  18  60
BRANCH  14  65
ATOM     65  C   UNK d   0       1.935   2.121  42.382  0.00  0.00     0.052 C 
BRANCH  65  66
ATOM     66  C   UNK d   0       2.328   1.373  41.158  0.00  0.00     0.115 C 
BRANCH  66  67
ATOM     67  C   UNK d   0       3.084   0.158  41.278  0.00  0.00     0.139 C 
ATOM     68  O   UNK d   0       3.104  -0.653  40.281  0.00  0.00    -0.650 OA
BRANCH  67  69
ATOM     69  O   UNK d   0       3.829  -0.278  42.373  0.00  0.00    -0.776 OA
ATOM     70  H   UNK d   0       4.758  -0.669  42.156  0.00  0.00     0.167 HD
ENDBRANCH  67  69
ENDBRANCH  66  67
ENDBRANCH  65  66
ENDBRANCH  14  65
ENDBRANCH   6   7
ENDBRANCH   5   6
ENDBRANCH   2   5
TORSDOF 28
ENDMDL
MODEL 4
REMARK VINA RESULT:      -9.3     28.771     32.644
REMARK  28 active torsions:
REMARK  status: ('A' for Active; 'I' for Inactive)
REMARK    1  A    between atoms: C_2  and  O_3 
REMARK    2  A    between atoms: C_2  and  C_4 
REMARK    3  A    between atoms: C_4  and  C_5 
REMARK    4  A    between atoms: C_5  and  C_6 
REMARK    5  A    between atoms: C_7  and  C_8 
REMARK    6  A    between atoms: C_8  and  C_9 
REMARK    7  A    between atoms: C_9  and  O_11 
REMARK    8  A    between atoms: C_28  and  C_29 
REMARK    9  A    between atoms: C_29  and  C_30 
REMARK   10  A    between atoms: C_30  and  O_32 
REMARK   11  A    between atoms: C_33  and  C_34 
REMARK   12  A    between atoms: C_34  and  C_35 
REMARK   13  A    between atoms: C_35  and  C_36 
REMARK   14  A    between atoms: C_36  and  O_38 
REMARK   15  A    between atoms: C_39  and  C_40 
REMARK   16  A    between atoms: C_40  and  C_41 
REMARK   17  A    between atoms: C_41  and  C_42 
REMARK   18  A    between atoms: C_42  and  O_44 
REMARK   19  A    between atoms: C_45  and  C_46 
REMARK   20  A    between atoms: C_46  and  C_47 
REMARK   21  A    between atoms: C_47  and  O_49 
REMARK   22  A    between atoms: C_50  and  C_51 
REMARK   23  A    between atoms: C_51  and  C_52 
REMARK   24  A    between atoms: C_52  and  O_54 
REMARK   25  A    between atoms: C_55  and  C_56 
REMARK   26  A    between atoms: C_56  and  C_57 
REMARK   27  A    between atoms: C_57  and  C_58 
REMARK   28  A    between atoms: C_58  and  O_60 
ROOT
ATOM      1  O   UNK d   0       1.289   2.790  36.646  0.00  0.00    -0.650 OA
ATOM      2  C   UNK d   0       1.078   3.990  36.928  0.00  0.00     0.139 C 
ENDROOT
BRANCH   2   3
ATOM      3  O   UNK d   0       0.955   4.909  35.914  0.00  0.00    -0.776 OA
ATOM      4  H   UNK d   0       1.452   4.789  35.030  0.00  0.00     0.167 HD
ENDBRANCH   2   3
BRANCH   2   5
ATOM      5  C   UNK d   0       0.961   4.415  38.352  0.00  0.00     0.115 C 
BRANCH   5   6
ATOM      6  C   UNK d   0       0.307   5.767  38.438  0.00  0.00     0.052 C 
BRANCH   6   7
ATOM      7  C   UNK d   0       1.160   6.781  39.161  0.00  0.00    -0.020 A 
ATOM      8  C   UNK d   0       1.383   8.025  38.822  0.00  0.00    -0.011 A 
ATOM      9  C   UNK d   0       2.272   8.605  39.815  0.00  0.00     0.067 A 
ATOM     10  C   UNK d   0       2.857   9.861  40.039  0.00  0.00     0.062 C 
ATOM     11  N   UNK d   0       2.544   7.642  40.720  0.00  0.00    -0.248 NA
ATOM     12  C   UNK d   0       3.469  10.313  41.213  0.00  0.00     0.041 A 
ATOM     13  N   UNK d   0       4.320   9.704  42.060  0.00  0.00    -0.355 N 
ATOM     14  C   UNK d   0       3.155  11.598  41.693  0.00  0.00    -0.022 A 
ATOM     15  C   UNK d   0       4.548  10.565  43.069  0.00  0.00     0.042 A 
ATOM     16  H   UNK d   0       4.766   8.692  41.937  0.00  0.00     0.166 HD
ATOM     17  C   UNK d   0       5.358  10.436  44.215  0.00  0.00     0.062 C 
ATOM     18  C   UNK d   0       3.835  11.764  42.874  0.00  0.00    -0.013 A 
ATOM     19  C   UNK d   0       5.474   9.372  45.073  0.00  0.00     0.067 A 
ATOM     20  N   UNK d   0       4.910   8.223  44.692  0.00  0.00    -0.248 NA
ATOM     21  C   UNK d   0       6.073   9.143  46.377  0.00  0.00    -0.011 A 
ATOM     22  C   UNK d   0       5.095   7.260  45.653  0.00  0.00     0.066 A 
ATOM     23  C   UNK d   0       4.589   6.000  45.369  0.00  0.00     0.062 C 
ATOM     24  C   UNK d   0       5.844   7.906  46.713  0.00  0.00    -0.020 A 
ATOM     25  C   UNK d   0       3.988   5.563  44.178  0.00  0.00     0.041 A 
ATOM     26  N   UNK d   0       3.131   6.163  43.344  0.00  0.00    -0.355 N 
ATOM     27  C   UNK d   0       4.307   4.275  43.694  0.00  0.00    -0.022 A 
ATOM     28  C   UNK d   0       2.895   5.302  42.341  0.00  0.00     0.042 A 
ATOM     29  H   UNK d   0       2.675   7.175  43.474  0.00  0.00     0.166 HD
ATOM     30  C   UNK d   0       2.085   5.414  41.200  0.00  0.00     0.062 C 
ATOM     31  C   UNK d   0       3.620   4.103  42.532  0.00  0.00    -0.013 A 
ATOM     32  C   UNK d   0       1.905   6.520  40.384  0.00  0.00     0.066 A 
BRANCH   8  33
ATOM     33  C   UNK d   0       0.845   8.730  37.644  0.00  0.00     0.151 C 
BRANCH  33  34
ATOM     34  C   UNK d   0       1.763   8.700  36.491  0.00  0.00     0.143 C 
ATOM     35  O   UNK d   0       2.403   7.676  36.215  0.00  0.00    -0.650 OA
BRANCH  34  36
ATOM     36  O   UNK d   0       1.910   9.826  35.715  0.00  0.00    -0.776 OA
ATOM     37  H   UNK d   0       2.607   9.867  34.959  0.00  0.00     0.167 HD
ENDBRANCH  34  36
ENDBRANCH  33  34
ENDBRANCH   8  33
BRANCH  31  38
ATOM     38  C   UNK d   0       3.659   2.878  41.647  0.00  0.00     0.151 C 
BRANCH  38  39
ATOM     39  C   UNK d   0       2.522   2.005  41.848  0.00  0.00     0.143 C 
ATOM     40  O   UNK d   0       2.292   1.032  41.108  0.00  0.00    -0.650 OA
BRANCH  39  41
ATOM     41  O   UNK d   0       1.647   2.249  42.906  0.00  0.00    -0.776 OA
ATOM     42  H   UNK d   0       1.347   3.220  43.041  0.00  0.00     0.167 HD
ENDBRANCH  39  41
ENDBRANCH  38  39
ENDBRANCH  31  38
BRANCH  27  43
ATOM     43  C   UNK d   0       5.218   3.228  44.285  0.00  0.00     0.052 C 
BRANCH  43  44
ATOM     44  C   UNK d   0       4.490   2.189  45.074  0.00  0.00     0.115 C 
BRANCH  44  45
ATOM     45  C   UNK d   0       5.003   2.275  46.465  0.00  0.00     0.139 C 
ATOM     46  O   UNK d   0       6.176   1.885  46.689  0.00  0.00    -0.650 OA
BRANCH  45  47
ATOM     47  O   UNK d   0       4.252   2.767  47.510  0.00  0.00    -0.776 OA
ATOM     48  H   UNK d   0       3.341   3.235  47.373  0.00  0.00     0.167 HD
ENDBRANCH  45  47
ENDBRANCH  44  45
ENDBRANCH  43  44
ENDBRANCH  27  43
BRANCH  24  49
ATOM     49  C   UNK d   0       6.306   7.240  47.943  0.00  0.00     0.052 C 
BRANCH  49  50
ATOM     50  C   UNK d   0       5.693   5.868  48.059  0.00  0.00     0.115 C 
BRANCH  50  51
ATOM     51  C   UNK d   0       5.699   5.246  49.376  0.00  0.00     0.139 C 
ATOM     52  O   UNK d   0       4.750   4.543  49.796  0.00  0.00    -0.650 OA
BRANCH  51  53
ATOM     53  O   UNK d   0       6.787   5.428  50.215  0.00  0.00    -0.776 OA
ATOM     54  H   UNK d   0       7.701   5.493  49.802  0.00  0.00     0.167 HD
ENDBRANCH  51  53
ENDBRANCH  50  51
ENDBRANCH  49  50
ENDBRANCH  24  49
BRANCH  21  55
ATOM     55  C   UNK d   0       6.815  10.182  47.150  0.00  0.00     0.151 C 
BRANCH  55  56
ATOM     56  C   UNK d   0       8.272   9.992  47.072  0.00  0.00     0.143 C 
ATOM     57  O   UNK d   0       8.801   9.112  46.365  0.00  0.00    -0.650 OA
BRANCH  56  58
ATOM     58  O   UNK d   0       9.079  10.841  47.828  0.00  0.00    -0.776 OA
ATOM     59  H   UNK d   0       9.254  10.525  48.799  0.00  0.00     0.167 HD
ENDBRANCH  56  58
ENDBRANCH  55  56
ENDBRANCH  21  55
BRANCH  18  60
ATOM     60  C   UNK d   0       3.780  13.000  43.736  0.00  0.00     0.151 C 
BRANCH  60  61
ATOM     61  C   UNK d   0       2.620  12.823  44.624  0.00  0.00     0.143 C 
ATOM     62  O   UNK d   0       2.053  11.766  44.901  0.00  0.00    -0.650 OA
BRANCH  61  63
ATOM     63  O   UNK d   0       2.123  14.011  45.210  0.00  0.00    -0.776 OA
ATOM     64  H   UNK d   0       2.180  14.164  46.201  0.00  0.00     0.167 HD
ENDBRANCH  61  63
ENDBRANCH  60  61
ENDBRANCH  18  60
BRANCH  14  65
ATOM     65  C   UNK d   0       2.349  12.705  41.077  0.00  0.00     0.052 C 
BRANCH  65  66
ATOM     66  C   UNK d   0       0.942  12.739  41.561  0.00  0.00     0.115 C 
BRANCH  66  67
ATOM     67  C   UNK d   0       0.238  11.509  41.789  0.00  0.00     0.139 C 
ATOM     68  O   UNK d   0      -0.356  10.949  40.795  0.00  0.00    -0.650 OA
BRANCH  67  69
ATOM     69  O   UNK d   0       0.105  10.811  42.989  0.00  0.00    -0.776 OA
ATOM     70  H   UNK d   0      -0.175   9.823  42.904  0.00  0.00     0.167 HD
ENDBRANCH  67  69
ENDBRANCH  66  67
ENDBRANCH  65  66
ENDBRANCH  14  65
ENDBRANCH   6   7
ENDBRANCH   5   6
ENDBRANCH   2   5
TORSDOF 28
ENDMDL
MODEL 5
REMARK VINA RESULT:      -9.2      1.258      1.754
REMARK  28 active torsions:
REMARK  status: ('A' for Active; 'I' for Inactive)
REMARK    1  A    between atoms: C_2  and  O_3 
REMARK    2  A    between atoms: C_2  and  C_4 
REMARK    3  A    between atoms: C_4  and  C_5 
REMARK    4  A    between atoms: C_5  and  C_6 
REMARK    5  A    between atoms: C_7  and  C_8 
REMARK    6  A    between atoms: C_8  and  C_9 
REMARK    7  A    between atoms: C_9  and  O_11 
REMARK    8  A    between atoms: C_28  and  C_29 
REMARK    9  A    between atoms: C_29  and  C_30 
REMARK   10  A    between atoms: C_30  and  O_32 
REMARK   11  A    between atoms: C_33  and  C_34 
REMARK   12  A    between atoms: C_34  and  C_35 
REMARK   13  A    between atoms: C_35  and  C_36 
REMARK   14  A    between atoms: C_36  and  O_38 
REMARK   15  A    between atoms: C_39  and  C_40 
REMARK   16  A    between atoms: C_40  and  C_41 
REMARK   17  A    between atoms: C_41  and  C_42 
REMARK   18  A    between atoms: C_42  and  O_44 
REMARK   19  A    between atoms: C_45  and  C_46 
REMARK   20  A    between atoms: C_46  and  C_47 
REMARK   21  A    between atoms: C_47  and  O_49 
REMARK   22  A    between atoms: C_50  and  C_51 
REMARK   23  A    between atoms: C_51  and  C_52 
REMARK   24  A    between atoms: C_52  and  O_54 
REMARK   25  A    between atoms: C_55  and  C_56 
REMARK   26  A    between atoms: C_56  and  C_57 
REMARK   27  A    between atoms: C_57  and  C_58 
REMARK   28  A    between atoms: C_58  and  O_60 
ROOT
ATOM      1  O   UNK d   0      38.051  -2.594  45.847  0.00  0.00    -0.650 OA
ATOM      2  C   UNK d   0      37.626  -2.523  47.021  0.00  0.00     0.139 C 
ENDROOT
BRANCH   2   3
ATOM      3  O   UNK d   0      38.099  -3.405  47.963  0.00  0.00    -0.776 OA
ATOM      4  H   UNK d   0      38.669  -4.209  47.694  0.00  0.00     0.167 HD
ENDBRANCH   2   3
BRANCH   2   5
ATOM      5  C   UNK d   0      36.616  -1.492  47.390  0.00  0.00     0.115 C 
BRANCH   5   6
ATOM      6  C   UNK d   0      35.238  -2.097  47.404  0.00  0.00     0.052 C 
BRANCH   6   7
ATOM      7  C   UNK d   0      34.517  -1.930  46.088  0.00  0.00    -0.020 A 
ATOM      8  C   UNK d   0      33.877  -0.872  45.657  0.00  0.00    -0.011 A 
ATOM      9  C   UNK d   0      33.339  -1.183  44.343  0.00  0.00     0.067 A 
ATOM     10  C   UNK d   0      32.598  -0.500  43.366  0.00  0.00     0.062 C 
ATOM     11  N   UNK d   0      33.694  -2.452  44.054  0.00  0.00    -0.248 NA
ATOM     12  C   UNK d   0      32.407  -0.876  42.031  0.00  0.00     0.041 A 
ATOM     13  N   UNK d   0      32.140  -2.074  41.477  0.00  0.00    -0.355 N 
ATOM     14  C   UNK d   0      32.556   0.094  41.023  0.00  0.00    -0.022 A 
ATOM     15  C   UNK d   0      32.122  -1.891  40.144  0.00  0.00     0.042 A 
ATOM     16  H   UNK d   0      31.947  -3.026  42.019  0.00  0.00     0.166 HD
ATOM     17  C   UNK d   0      31.890  -2.807  39.099  0.00  0.00     0.062 C 
ATOM     18  C   UNK d   0      32.379  -0.544  39.821  0.00  0.00    -0.013 A 
ATOM     19  C   UNK d   0      32.389  -4.074  38.936  0.00  0.00     0.067 A 
ATOM     20  N   UNK d   0      33.023  -4.613  39.981  0.00  0.00    -0.248 NA
ATOM     21  C   UNK d   0      32.431  -5.050  37.860  0.00  0.00    -0.011 A 
ATOM     22  C   UNK d   0      33.478  -5.870  39.665  0.00  0.00     0.066 A 
ATOM     23  C   UNK d   0      34.126  -6.563  40.677  0.00  0.00     0.062 C 
ATOM     24  C   UNK d   0      33.073  -6.097  38.292  0.00  0.00    -0.020 A 
ATOM     25  C   UNK d   0      34.296  -6.173  42.015  0.00  0.00     0.041 A 
ATOM     26  N   UNK d   0      34.577  -4.985  42.564  0.00  0.00    -0.355 N 
ATOM     27  C   UNK d   0      34.142  -7.146  43.026  0.00  0.00    -0.022 A 
ATOM     28  C   UNK d   0      34.603  -5.167  43.894  0.00  0.00     0.042 A 
ATOM     29  H   UNK d   0      34.780  -4.032  42.018  0.00  0.00     0.166 HD
ATOM     30  C   UNK d   0      34.842  -4.267  44.944  0.00  0.00     0.062 C 
ATOM     31  C   UNK d   0      34.335  -6.518  44.218  0.00  0.00    -0.013 A 
ATOM     32  C   UNK d   0      34.405  -2.957  45.064  0.00  0.00     0.066 A 
BRANCH   8  33
ATOM     33  C   UNK d   0      33.714   0.412  46.363  0.00  0.00     0.151 C 
BRANCH  33  34
ATOM     34  C   UNK d   0      34.409   1.525  45.691  0.00  0.00     0.143 C 
ATOM     35  O   UNK d   0      34.911   2.450  46.345  0.00  0.00    -0.650 OA
BRANCH  34  36
ATOM     36  O   UNK d   0      34.498   1.535  44.318  0.00  0.00    -0.776 OA
ATOM     37  H   UNK d   0      33.842   2.083  43.744  0.00  0.00     0.167 HD
ENDBRANCH  34  36
ENDBRANCH  33  34
ENDBRANCH   8  33
BRANCH  31  38
ATOM     38  C   UNK d   0      34.255  -7.157  45.585  0.00  0.00     0.151 C 
BRANCH  38  39
ATOM     39  C   UNK d   0      32.895  -7.320  46.051  0.00  0.00     0.143 C 
ATOM     40  O   UNK d   0      32.548  -8.269  46.776  0.00  0.00    -0.650 OA
BRANCH  39  41
ATOM     41  O   UNK d   0      31.927  -6.386  45.682  0.00  0.00    -0.776 OA
ATOM     42  H   UNK d   0      31.166  -6.222  46.348  0.00  0.00     0.167 HD
ENDBRANCH  39  41
ENDBRANCH  38  39
ENDBRANCH  31  38
BRANCH  27  43
ATOM     43  C   UNK d   0      33.829  -8.616  42.902  0.00  0.00     0.052 C 
BRANCH  43  44
ATOM     44  C   UNK d   0      32.382  -8.931  43.098  0.00  0.00     0.115 C 
BRANCH  44  45
ATOM     45  C   UNK d   0      32.319 -10.301  43.670  0.00  0.00     0.139 C 
ATOM     46  O   UNK d   0      31.680 -11.178  43.037  0.00  0.00    -0.650 OA
BRANCH  45  47
ATOM     47  O   UNK d   0      32.933 -10.645  44.855  0.00  0.00    -0.776 OA
ATOM     48  H   UNK d   0      33.568 -11.454  44.942  0.00  0.00     0.167 HD
ENDBRANCH  45  47
ENDBRANCH  44  45
ENDBRANCH  43  44
ENDBRANCH  27  43
BRANCH  24  49
ATOM     49  C   UNK d   0      33.314  -7.340  37.539  0.00  0.00     0.052 C 
BRANCH  49  50
ATOM     50  C   UNK d   0      32.041  -8.137  37.421  0.00  0.00     0.115 C 
BRANCH  50  51
ATOM     51  C   UNK d   0      31.330  -8.072  36.151  0.00  0.00     0.139 C 
ATOM     52  O   UNK d   0      31.921  -7.970  35.050  0.00  0.00    -0.650 OA
BRANCH  51  53
ATOM     53  O   UNK d   0      29.945  -8.121  36.137  0.00  0.00    -0.776 OA
ATOM     54  H   UNK d   0      29.448  -7.759  36.932  0.00  0.00     0.167 HD
ENDBRANCH  51  53
ENDBRANCH  50  51
ENDBRANCH  49  50
ENDBRANCH  24  49
BRANCH  21  55
ATOM     55  C   UNK d   0      31.821  -4.837  36.514  0.00  0.00     0.151 C 
BRANCH  55  56
ATOM     56  C   UNK d   0      30.366  -4.639  36.594  0.00  0.00     0.143 C 
ATOM     57  O   UNK d   0      29.624  -5.355  37.295  0.00  0.00    -0.650 OA
BRANCH  56  58
ATOM     58  O   UNK d   0      29.810  -3.601  35.847  0.00  0.00    -0.776 OA
ATOM     59  H   UNK d   0      28.849  -3.332  36.123  0.00  0.00     0.167 HD
ENDBRANCH  56  58
ENDBRANCH  55  56
ENDBRANCH  21  55
BRANCH  18  60
ATOM     60  C   UNK d   0      32.461   0.121  38.469  0.00  0.00     0.151 C 
BRANCH  60  61
ATOM     61  C   UNK d   0      31.089   0.538  38.141  0.00  0.00     0.143 C 
ATOM     62  O   UNK d   0      30.520   1.568  38.504  0.00  0.00    -0.650 OA
BRANCH  61  63
ATOM     63  O   UNK d   0      30.368  -0.358  37.315  0.00  0.00    -0.776 OA
ATOM     64  H   UNK d   0      30.555  -1.345  37.335  0.00  0.00     0.167 HD
ENDBRANCH  61  63
ENDBRANCH  60  61
ENDBRANCH  18  60
BRANCH  14  65
ATOM     65  C   UNK d   0      32.752   1.580  41.114  0.00  0.00     0.052 C 
BRANCH  65  66
ATOM     66  C   UNK d   0      31.577   2.288  41.692  0.00  0.00     0.115 C 
BRANCH  66  67
ATOM     67  C   UNK d   0      31.779   3.443  42.520  0.00  0.00     0.139 C 
ATOM     68  O   UNK d   0      31.879   3.277  43.792  0.00  0.00    -0.650 OA
BRANCH  67  69
ATOM     69  O   UNK d   0      31.886   4.774  42.118  0.00  0.00    -0.776 OA
ATOM     70  H   UNK d   0      31.367   5.026  41.264  0.00  0.00     0.167 HD
ENDBRANCH  67  69
ENDBRANCH  66  67
ENDBRANCH  65  66
ENDBRANCH  14  65
ENDBRANCH   6   7
ENDBRANCH   5   6
ENDBRANCH   2   5
TORSDOF 28
ENDMDL
MODEL 6
REMARK VINA RESULT:      -9.2      1.085      7.315
REMARK  28 active torsions:
REMARK  status: ('A' for Active; 'I' for Inactive)
REMARK    1  A    between atoms: C_2  and  O_3 
REMARK    2  A    between atoms: C_2  and  C_4 
REMARK    3  A    between atoms: C_4  and  C_5 
REMARK    4  A    between atoms: C_5  and  C_6 
REMARK    5  A    between atoms: C_7  and  C_8 
REMARK    6  A    between atoms: C_8  and  C_9 
REMARK    7  A    between atoms: C_9  and  O_11 
REMARK    8  A    between atoms: C_28  and  C_29 
REMARK    9  A    between atoms: C_29  and  C_30 
REMARK   10  A    between atoms: C_30  and  O_32 
REMARK   11  A    between atoms: C_33  and  C_34 
REMARK   12  A    between atoms: C_34  and  C_35 
REMARK   13  A    between atoms: C_35  and  C_36 
REMARK   14  A    between atoms: C_36  and  O_38 
REMARK   15  A    between atoms: C_39  and  C_40 
REMARK   16  A    between atoms: C_40  and  C_41 
REMARK   17  A    between atoms: C_41  and  C_42 
REMARK   18  A    between atoms: C_42  and  O_44 
REMARK   19  A    between atoms: C_45  and  C_46 
REMARK   20  A    between atoms: C_46  and  C_47 
REMARK   21  A    between atoms: C_47  and  O_49 
REMARK   22  A    between atoms: C_50  and  C_51 
REMARK   23  A    between atoms: C_51  and  C_52 
REMARK   24  A    between atoms: C_52  and  O_54 
REMARK   25  A    between atoms: C_55  and  C_56 
REMARK   26  A    between atoms: C_56  and  C_57 
REMARK   27  A    between atoms: C_57  and  C_58 
REMARK   28  A    between atoms: C_58  and  O_60 
ROOT
ATOM      1  O   UNK d   0      35.473   2.557  47.818  0.00  0.00    -0.650 OA
ATOM      2  C   UNK d   0      35.219   2.854  46.630  0.00  0.00     0.139 C 
ENDROOT
BRANCH   2   3
ATOM      3  O   UNK d   0      35.782   3.981  46.082  0.00  0.00    -0.776 OA
ATOM      4  H   UNK d   0      36.241   4.680  46.670  0.00  0.00     0.167 HD
ENDBRANCH   2   3
BRANCH   2   5
ATOM      5  C   UNK d   0      34.313   1.990  45.820  0.00  0.00     0.115 C 
BRANCH   5   6
ATOM      6  C   UNK d   0      33.964   0.744  46.587  0.00  0.00     0.052 C 
BRANCH   6   7
ATOM      7  C   UNK d   0      34.245  -0.517  45.805  0.00  0.00    -0.020 A 
ATOM      8  C   UNK d   0      34.940  -1.557  46.190  0.00  0.00    -0.011 A 
ATOM      9  C   UNK d   0      34.943  -2.518  45.100  0.00  0.00     0.067 A 
ATOM     10  C   UNK d   0      35.470  -3.801  44.882  0.00  0.00     0.062 C 
ATOM     11  N   UNK d   0      34.230  -1.979  44.088  0.00  0.00    -0.248 NA
ATOM     12  C   UNK d   0      35.131  -4.693  43.859  0.00  0.00     0.041 A 
ATOM     13  N   UNK d   0      34.922  -4.496  42.544  0.00  0.00    -0.355 N 
ATOM     14  C   UNK d   0      34.898  -6.042  44.183  0.00  0.00    -0.022 A 
ATOM     15  C   UNK d   0      34.554  -5.684  42.026  0.00  0.00     0.042 A 
ATOM     16  H   UNK d   0      35.050  -3.541  41.989  0.00  0.00     0.166 HD
ATOM     17  C   UNK d   0      34.220  -6.039  40.704  0.00  0.00     0.062 C 
ATOM     18  C   UNK d   0      34.527  -6.677  43.024  0.00  0.00    -0.013 A 
ATOM     19  C   UNK d   0      33.415  -5.380  39.810  0.00  0.00     0.067 A 
ATOM     20  N   UNK d   0      33.042  -4.140  40.134  0.00  0.00    -0.248 NA
ATOM     21  C   UNK d   0      32.806  -5.689  38.527  0.00  0.00    -0.011 A 
ATOM     22  C   UNK d   0      32.231  -3.616  39.157  0.00  0.00     0.066 A 
ATOM     23  C   UNK d   0      31.799  -2.312  39.349  0.00  0.00     0.062 C 
ATOM     24  C   UNK d   0      32.111  -4.654  38.153  0.00  0.00    -0.020 A 
ATOM     25  C   UNK d   0      32.161  -1.427  40.376  0.00  0.00     0.041 A 
ATOM     26  N   UNK d   0      32.354  -1.620  41.687  0.00  0.00    -0.355 N 
ATOM     27  C   UNK d   0      32.399  -0.074  40.050  0.00  0.00    -0.022 A 
ATOM     28  C   UNK d   0      32.712  -0.436  42.207  0.00  0.00     0.042 A 
ATOM     29  H   UNK d   0      32.214  -2.579  42.245  0.00  0.00     0.166 HD
ATOM     30  C   UNK d   0      33.038  -0.066  43.521  0.00  0.00     0.062 C 
ATOM     31  C   UNK d   0      32.749   0.560  41.202  0.00  0.00    -0.013 A 
ATOM     32  C   UNK d   0      33.782  -0.776  44.450  0.00  0.00     0.066 A 
BRANCH   8  33
ATOM     33  C   UNK d   0      35.614  -1.739  47.488  0.00  0.00     0.151 C 
BRANCH  33  34
ATOM     34  C   UNK d   0      36.959  -1.137  47.523  0.00  0.00     0.143 C 
ATOM     35  O   UNK d   0      37.936  -1.734  47.048  0.00  0.00    -0.650 OA
BRANCH  34  36
ATOM     36  O   UNK d   0      37.129   0.103  48.093  0.00  0.00    -0.776 OA
ATOM     37  H   UNK d   0      36.953   0.260  49.094  0.00  0.00     0.167 HD
ENDBRANCH  34  36
ENDBRANCH  33  34
ENDBRANCH   8  33
BRANCH  31  38
ATOM     38  C   UNK d   0      33.111   2.020  41.341  0.00  0.00     0.151 C 
BRANCH  38  39
ATOM     39  C   UNK d   0      31.971   2.853  41.661  0.00  0.00     0.143 C 
ATOM     40  O   UNK d   0      31.661   3.136  42.832  0.00  0.00    -0.650 OA
BRANCH  39  41
ATOM     41  O   UNK d   0      31.182   3.364  40.631  0.00  0.00    -0.776 OA
ATOM     42  H   UNK d   0      30.521   4.105  40.880  0.00  0.00     0.167 HD
ENDBRANCH  39  41
ENDBRANCH  38  39
ENDBRANCH  31  38
BRANCH  27  43
ATOM     43  C   UNK d   0      32.305   0.620  38.714  0.00  0.00     0.052 C 
BRANCH  43  44
ATOM     44  C   UNK d   0      30.909   0.706  38.190  0.00  0.00     0.115 C 
BRANCH  44  45
ATOM     45  C   UNK d   0      30.831  -0.225  37.035  0.00  0.00     0.139 C 
ATOM     46  O   UNK d   0      31.887  -0.472  36.401  0.00  0.00    -0.650 OA
BRANCH  45  47
ATOM     47  O   UNK d   0      29.657  -0.828  36.639  0.00  0.00    -0.776 OA
ATOM     48  H   UNK d   0      29.144  -1.500  37.233  0.00  0.00     0.167 HD
ENDBRANCH  45  47
ENDBRANCH  44  45
ENDBRANCH  43  44
ENDBRANCH  27  43
BRANCH  24  49
ATOM     49  C   UNK d   0      31.361  -4.522  36.892  0.00  0.00     0.052 C 
BRANCH  49  50
ATOM     50  C   UNK d   0      30.082  -5.317  36.958  0.00  0.00     0.115 C 
BRANCH  50  51
ATOM     51  C   UNK d   0      28.862  -4.589  37.280  0.00  0.00     0.139 C 
ATOM     52  O   UNK d   0      27.723  -5.103  37.187  0.00  0.00    -0.650 OA
BRANCH  51  53
ATOM     53  O   UNK d   0      28.942  -3.272  37.706  0.00  0.00    -0.776 OA
ATOM     54  H   UNK d   0      29.622  -3.040  38.409  0.00  0.00     0.167 HD
ENDBRANCH  51  53
ENDBRANCH  50  51
ENDBRANCH  49  50
ENDBRANCH  24  49
BRANCH  21  55
ATOM     55  C   UNK d   0      32.986  -6.985  37.808  0.00  0.00     0.151 C 
BRANCH  55  56
ATOM     56  C   UNK d   0      34.131  -6.949  36.885  0.00  0.00     0.143 C 
ATOM     57  O   UNK d   0      35.163  -7.626  37.063  0.00  0.00    -0.650 OA
BRANCH  56  58
ATOM     58  O   UNK d   0      34.040  -6.117  35.771  0.00  0.00    -0.776 OA
ATOM     59  H   UNK d   0      34.582  -5.237  35.838  0.00  0.00     0.167 HD
ENDBRANCH  56  58
ENDBRANCH  55  56
ENDBRANCH  21  55
BRANCH  18  60
ATOM     60  C   UNK d   0      34.174  -8.140  42.914  0.00  0.00     0.151 C 
BRANCH  60  61
ATOM     61  C   UNK d   0      32.827  -8.274  43.488  0.00  0.00     0.143 C 
ATOM     62  O   UNK d   0      32.269  -9.315  43.836  0.00  0.00    -0.650 OA
BRANCH  61  63
ATOM     63  O   UNK d   0      32.116  -7.061  43.646  0.00  0.00    -0.776 OA
ATOM     64  H   UNK d   0      31.621  -6.645  42.876  0.00  0.00     0.167 HD
ENDBRANCH  61  63
ENDBRANCH  60  61
ENDBRANCH  18  60
BRANCH  14  65
ATOM     65  C   UNK d   0      35.092  -6.790  45.472  0.00  0.00     0.052 C 
BRANCH  65  66
ATOM     66  C   UNK d   0      34.242  -6.273  46.578  0.00  0.00     0.115 C 
BRANCH  66  67
ATOM     67  C   UNK d   0      33.420  -7.180  47.327  0.00  0.00     0.139 C 
ATOM     68  O   UNK d   0      32.367  -7.661  46.767  0.00  0.00    -0.650 OA
BRANCH  67  69
ATOM     69  O   UNK d   0      33.616  -7.629  48.633  0.00  0.00    -0.776 OA
ATOM     70  H   UNK d   0      32.910  -7.327  49.321  0.00  0.00     0.167 HD
ENDBRANCH  67  69
ENDBRANCH  66  67
ENDBRANCH  65  66
ENDBRANCH  14  65
ENDBRANCH   6   7
ENDBRANCH   5   6
ENDBRANCH   2   5
TORSDOF 28
ENDMDL
MODEL 7
REMARK VINA RESULT:      -9.1     28.917     33.471
REMARK  28 active torsions:
REMARK  status: ('A' for Active; 'I' for Inactive)
REMARK    1  A    between atoms: C_2  and  O_3 
REMARK    2  A    between atoms: C_2  and  C_4 
REMARK    3  A    between atoms: C_4  and  C_5 
REMARK    4  A    between atoms: C_5  and  C_6 
REMARK    5  A    between atoms: C_7  and  C_8 
REMARK    6  A    between atoms: C_8  and  C_9 
REMARK    7  A    between atoms: C_9  and  O_11 
REMARK    8  A    between atoms: C_28  and  C_29 
REMARK    9  A    between atoms: C_29  and  C_30 
REMARK   10  A    between atoms: C_30  and  O_32 
REMARK   11  A    between atoms: C_33  and  C_34 
REMARK   12  A    between atoms: C_34  and  C_35 
REMARK   13  A    between atoms: C_35  and  C_36 
REMARK   14  A    between atoms: C_36  and  O_38 
REMARK   15  A    between atoms: C_39  and  C_40 
REMARK   16  A    between atoms: C_40  and  C_41 
REMARK   17  A    between atoms: C_41  and  C_42 
REMARK   18  A    between atoms: C_42  and  O_44 
REMARK   19  A    between atoms: C_45  and  C_46 
REMARK   20  A    between atoms: C_46  and  C_47 
REMARK   21  A    between atoms: C_47  and  O_49 
REMARK   22  A    between atoms: C_50  and  C_51 
REMARK   23  A    between atoms: C_51  and  C_52 
REMARK   24  A    between atoms: C_52  and  O_54 
REMARK   25  A    between atoms: C_55  and  C_56 
REMARK   26  A    between atoms: C_56  and  C_57 
REMARK   27  A    between atoms: C_57  and  C_58 
REMARK   28  A    between atoms: C_58  and  O_60 
ROOT
ATOM      1  O   UNK d   0       0.846   6.994  34.914  0.00  0.00    -0.650 OA
ATOM      2  C   UNK d   0       1.779   7.824  34.988  0.00  0.00     0.139 C 
ENDROOT
BRANCH   2   3
ATOM      3  O   UNK d   0       2.651   7.953  33.934  0.00  0.00    -0.776 OA
ATOM      4  H   UNK d   0       2.997   7.132  33.433  0.00  0.00     0.167 HD
ENDBRANCH   2   3
BRANCH   2   5
ATOM      5  C   UNK d   0       1.939   8.662  36.210  0.00  0.00     0.115 C 
BRANCH   5   6
ATOM      6  C   UNK d   0       0.802   8.410  37.163  0.00  0.00     0.052 C 
BRANCH   6   7
ATOM      7  C   UNK d   0       1.248   7.716  38.428  0.00  0.00    -0.020 A 
ATOM      8  C   UNK d   0       1.102   6.454  38.741  0.00  0.00    -0.011 A 
ATOM      9  C   UNK d   0       1.679   6.252  40.059  0.00  0.00     0.067 A 
ATOM     10  C   UNK d   0       1.861   5.165  40.929  0.00  0.00     0.062 C 
ATOM     11  N   UNK d   0       2.149   7.445  40.478  0.00  0.00    -0.248 NA
ATOM     12  C   UNK d   0       2.695   5.109  42.051  0.00  0.00     0.041 A 
ATOM     13  N   UNK d   0       2.923   6.004  43.031  0.00  0.00    -0.355 N 
ATOM     14  C   UNK d   0       3.512   3.979  42.236  0.00  0.00    -0.022 A 
ATOM     15  C   UNK d   0       3.870   5.473  43.829  0.00  0.00     0.042 A 
ATOM     16  H   UNK d   0       2.412   6.982  43.168  0.00  0.00     0.166 HD
ATOM     17  C   UNK d   0       4.474   5.985  44.995  0.00  0.00     0.062 C 
ATOM     18  C   UNK d   0       4.264   4.204  43.362  0.00  0.00    -0.013 A 
ATOM     19  C   UNK d   0       4.953   7.247  45.235  0.00  0.00     0.067 A 
ATOM     20  N   UNK d   0       4.647   8.191  44.340  0.00  0.00    -0.248 NA
ATOM     21  C   UNK d   0       5.770   7.878  46.259  0.00  0.00    -0.011 A 
ATOM     22  C   UNK d   0       5.205   9.392  44.704  0.00  0.00     0.066 A 
ATOM     23  C   UNK d   0       4.934  10.473  43.879  0.00  0.00     0.062 C 
ATOM     24  C   UNK d   0       5.917   9.131  45.940  0.00  0.00    -0.020 A 
ATOM     25  C   UNK d   0       4.083  10.511  42.763  0.00  0.00     0.041 A 
ATOM     26  N   UNK d   0       3.867   9.629  41.781  0.00  0.00    -0.355 N 
ATOM     27  C   UNK d   0       3.261  11.644  42.581  0.00  0.00    -0.022 A 
ATOM     28  C   UNK d   0       2.930  10.159  40.979  0.00  0.00     0.042 A 
ATOM     29  H   UNK d   0       4.389   8.651  41.639  0.00  0.00     0.166 HD
ATOM     30  C   UNK d   0       2.327   9.665  39.811  0.00  0.00     0.062 C 
ATOM     31  C   UNK d   0       2.527  11.429  41.455  0.00  0.00    -0.013 A 
ATOM     32  C   UNK d   0       1.921   8.368  39.542  0.00  0.00     0.066 A 
BRANCH   8  33
ATOM     33  C   UNK d   0       0.464   5.408  37.920  0.00  0.00     0.151 C 
BRANCH  33  34
ATOM     34  C   UNK d   0       0.472   4.086  38.574  0.00  0.00     0.143 C 
ATOM     35  O   UNK d   0      -0.460   3.736  39.312  0.00  0.00    -0.650 OA
BRANCH  34  36
ATOM     36  O   UNK d   0       1.530   3.234  38.360  0.00  0.00    -0.776 OA
ATOM     37  H   UNK d   0       1.380   2.234  38.167  0.00  0.00     0.167 HD
ENDBRANCH  34  36
ENDBRANCH  33  34
ENDBRANCH   8  33
BRANCH  31  38
ATOM     38  C   UNK d   0       1.495  12.366  40.871  0.00  0.00     0.151 C 
BRANCH  38  39
ATOM     39  C   UNK d   0       0.167  12.140  41.400  0.00  0.00     0.143 C 
ATOM     40  O   UNK d   0      -0.042  11.398  42.377  0.00  0.00    -0.650 OA
BRANCH  39  41
ATOM     41  O   UNK d   0      -0.925  12.769  40.805  0.00  0.00    -0.776 OA
ATOM     42  H   UNK d   0      -1.854  12.501  41.145  0.00  0.00     0.167 HD
ENDBRANCH  39  41
ENDBRANCH  38  39
ENDBRANCH  31  38
BRANCH  27  43
ATOM     43  C   UNK d   0       3.152  12.894  43.418  0.00  0.00     0.052 C 
BRANCH  43  44
ATOM     44  C   UNK d   0       2.295  12.721  44.630  0.00  0.00     0.115 C 
BRANCH  44  45
ATOM     45  C   UNK d   0       2.936  13.505  45.718  0.00  0.00     0.139 C 
ATOM     46  O   UNK d   0       4.122  13.231  46.025  0.00  0.00    -0.650 OA
BRANCH  45  47
ATOM     47  O   UNK d   0       2.286  14.515  46.394  0.00  0.00    -0.776 OA
ATOM     48  H   UNK d   0       2.373  15.510  46.132  0.00  0.00     0.167 HD
ENDBRANCH  45  47
ENDBRANCH  44  45
ENDBRANCH  43  44
ENDBRANCH  27  43
BRANCH  24  49
ATOM     49  C   UNK d   0       6.642  10.147  46.723  0.00  0.00     0.052 C 
BRANCH  49  50
ATOM     50  C   UNK d   0       8.108   9.804  46.796  0.00  0.00     0.115 C 
BRANCH  50  51
ATOM     51  C   UNK d   0       8.736   9.844  48.110  0.00  0.00     0.139 C 
ATOM     52  O   UNK d   0       9.955   9.608  48.285  0.00  0.00    -0.650 OA
BRANCH  51  53
ATOM     53  O   UNK d   0       7.973  10.152  49.226  0.00  0.00    -0.776 OA
ATOM     54  H   UNK d   0       7.749   9.412  49.868  0.00  0.00     0.167 HD
ENDBRANCH  51  53
ENDBRANCH  50  51
ENDBRANCH  49  50
ENDBRANCH  24  49
BRANCH  21  55
ATOM     55  C   UNK d   0       6.314   7.162  47.451  0.00  0.00     0.151 C 
BRANCH  55  56
ATOM     56  C   UNK d   0       5.350   6.197  48.001  0.00  0.00     0.143 C 
ATOM     57  O   UNK d   0       4.199   6.518  48.355  0.00  0.00    -0.650 OA
BRANCH  56  58
ATOM     58  O   UNK d   0       5.760   4.870  48.125  0.00  0.00    -0.776 OA
ATOM     59  H   UNK d   0       5.041   4.225  48.499  0.00  0.00     0.167 HD
ENDBRANCH  56  58
ENDBRANCH  55  56
ENDBRANCH  21  55
BRANCH  18  60
ATOM     60  C   UNK d   0       5.286   3.248  43.924  0.00  0.00     0.151 C 
BRANCH  60  61
ATOM     61  C   UNK d   0       4.642   2.601  45.077  0.00  0.00     0.143 C 
ATOM     62  O   UNK d   0       4.786   2.888  46.266  0.00  0.00    -0.650 OA
BRANCH  61  63
ATOM     63  O   UNK d   0       3.765   1.536  44.758  0.00  0.00    -0.776 OA
ATOM     64  H   UNK d   0       2.796   1.565  45.021  0.00  0.00     0.167 HD
ENDBRANCH  61  63
ENDBRANCH  60  61
ENDBRANCH  18  60
BRANCH  14  65
ATOM     65  C   UNK d   0       3.563   2.674  41.493  0.00  0.00     0.052 C 
BRANCH  65  66
ATOM     66  C   UNK d   0       2.300   1.896  41.596  0.00  0.00     0.115 C 
BRANCH  66  67
ATOM     67  C   UNK d   0       2.182   0.637  40.915  0.00  0.00     0.139 C 
ATOM     68  O   UNK d   0       1.928   0.643  39.654  0.00  0.00    -0.650 OA
BRANCH  67  69
ATOM     69  O   UNK d   0       2.310  -0.641  41.457  0.00  0.00    -0.776 OA
ATOM     70  H   UNK d   0       1.428  -1.149  41.619  0.00  0.00     0.167 HD
ENDBRANCH  67  69
ENDBRANCH  66  67
ENDBRANCH  65  66
ENDBRANCH  14  65
ENDBRANCH   6   7
ENDBRANCH   5   6
ENDBRANCH   2   5
TORSDOF 28
ENDMDL
MODEL 8
REMARK VINA RESULT:      -9.1     29.286     32.605
REMARK  28 active torsions:
REMARK  status: ('A' for Active; 'I' for Inactive)
REMARK    1  A    between atoms: C_2  and  O_3 
REMARK    2  A    between atoms: C_2  and  C_4 
REMARK    3  A    between atoms: C_4  and  C_5 
REMARK    4  A    between atoms: C_5  and  C_6 
REMARK    5  A    between atoms: C_7  and  C_8 
REMARK    6  A    between atoms: C_8  and  C_9 
REMARK    7  A    between atoms: C_9  and  O_11 
REMARK    8  A    between atoms: C_28  and  C_29 
REMARK    9  A    between atoms: C_29  and  C_30 
REMARK   10  A    between atoms: C_30  and  O_32 
REMARK   11  A    between atoms: C_33  and  C_34 
REMARK   12  A    between atoms: C_34  and  C_35 
REMARK   13  A    between atoms: C_35  and  C_36 
REMARK   14  A    between atoms: C_36  and  O_38 
REMARK   15  A    between atoms: C_39  and  C_40 
REMARK   16  A    between atoms: C_40  and  C_41 
REMARK   17  A    between atoms: C_41  and  C_42 
REMARK   18  A    between atoms: C_42  and  O_44 
REMARK   19  A    between atoms: C_45  and  C_46 
REMARK   20  A    between atoms: C_46  and  C_47 
REMARK   21  A    between atoms: C_47  and  O_49 
REMARK   22  A    between atoms: C_50  and  C_51 
REMARK   23  A    between atoms: C_51  and  C_52 
REMARK   24  A    between atoms: C_52  and  O_54 
REMARK   25  A    between atoms: C_55  and  C_56 
REMARK   26  A    between atoms: C_56  and  C_57 
REMARK   27  A    between atoms: C_57  and  C_58 
REMARK   28  A    between atoms: C_58  and  O_60 
ROOT
ATOM      1  O   UNK d   0       1.938  11.963  45.649  0.00  0.00    -0.650 OA
ATOM      2  C   UNK d   0       2.604  12.896  45.148  0.00  0.00     0.139 C 
ENDROOT
BRANCH   2   3
ATOM      3  O   UNK d   0       2.144  14.186  45.258  0.00  0.00    -0.776 OA
ATOM      4  H   UNK d   0       1.296  14.401  45.786  0.00  0.00     0.167 HD
ENDBRANCH   2   3
BRANCH   2   5
ATOM      5  C   UNK d   0       3.882  12.606  44.438  0.00  0.00     0.115 C 
BRANCH   5   6
ATOM      6  C   UNK d   0       3.643  12.525  42.955  0.00  0.00     0.052 C 
BRANCH   6   7
ATOM      7  C   UNK d   0       3.022  11.213  42.537  0.00  0.00    -0.020 A 
ATOM      8  C   UNK d   0       2.075  11.024  41.654  0.00  0.00    -0.011 A 
ATOM      9  C   UNK d   0       1.799   9.598  41.596  0.00  0.00     0.067 A 
ATOM     10  C   UNK d   0       0.942   8.761  40.864  0.00  0.00     0.062 C 
ATOM     11  N   UNK d   0       2.621   8.995  42.481  0.00  0.00    -0.248 NA
ATOM     12  C   UNK d   0       1.014   7.369  40.746  0.00  0.00     0.041 A 
ATOM     13  N   UNK d   0       1.255   6.413  41.664  0.00  0.00    -0.355 N 
ATOM     14  C   UNK d   0       0.876   6.786  39.474  0.00  0.00    -0.022 A 
ATOM     15  C   UNK d   0       1.281   5.239  41.004  0.00  0.00     0.042 A 
ATOM     16  H   UNK d   0       1.384   6.563  42.758  0.00  0.00     0.166 HD
ATOM     17  C   UNK d   0       1.491   3.929  41.480  0.00  0.00     0.062 C 
ATOM     18  C   UNK d   0       1.048   5.433  39.629  0.00  0.00    -0.013 A 
ATOM     19  C   UNK d   0       2.434   3.474  42.364  0.00  0.00     0.067 A 
ATOM     20  N   UNK d   0       3.134   4.396  43.030  0.00  0.00    -0.248 NA
ATOM     21  C   UNK d   0       2.923   2.174  42.794  0.00  0.00    -0.011 A 
ATOM     22  C   UNK d   0       4.046   3.794  43.862  0.00  0.00     0.066 A 
ATOM     23  C   UNK d   0       4.818   4.639  44.645  0.00  0.00     0.062 C 
ATOM     24  C   UNK d   0       3.868   2.368  43.667  0.00  0.00    -0.020 A 
ATOM     25  C   UNK d   0       4.721   6.035  44.759  0.00  0.00     0.041 A 
ATOM     26  N   UNK d   0       4.497   6.986  43.845  0.00  0.00    -0.355 N 
ATOM     27  C   UNK d   0       4.855   6.619  46.037  0.00  0.00    -0.022 A 
ATOM     28  C   UNK d   0       4.479   8.159  44.498  0.00  0.00     0.042 A 
ATOM     29  H   UNK d   0       4.377   6.835  42.744  0.00  0.00     0.166 HD
ATOM     30  C   UNK d   0       4.281   9.470  44.037  0.00  0.00     0.062 C 
ATOM     31  C   UNK d   0       4.703   7.962  45.882  0.00  0.00    -0.013 A 
ATOM     32  C   UNK d   0       3.382   9.912  43.079  0.00  0.00     0.066 A 
BRANCH   8  33
ATOM     33  C   UNK d   0       1.391  12.057  40.854  0.00  0.00     0.151 C 
BRANCH  33  34
ATOM     34  C   UNK d   0       0.112  12.486  41.450  0.00  0.00     0.143 C 
ATOM     35  O   UNK d   0      -0.043  12.504  42.679  0.00  0.00    -0.650 OA
BRANCH  34  36
ATOM     36  O   UNK d   0      -0.921  12.870  40.627  0.00  0.00    -0.776 OA
ATOM     37  H   UNK d   0      -0.897  12.681  39.616  0.00  0.00     0.167 HD
ENDBRANCH  34  36
ENDBRANCH  33  34
ENDBRANCH   8  33
BRANCH  31  38
ATOM     38  C   UNK d   0       4.753   8.998  46.981  0.00  0.00     0.151 C 
BRANCH  38  39
ATOM     39  C   UNK d   0       3.439   9.453  47.384  0.00  0.00     0.143 C 
ATOM     40  O   UNK d   0       2.416   8.767  47.214  0.00  0.00    -0.650 OA
BRANCH  39  41
ATOM     41  O   UNK d   0       3.301  10.703  47.986  0.00  0.00    -0.776 OA
ATOM     42  H   UNK d   0       2.351  10.991  48.240  0.00  0.00     0.167 HD
ENDBRANCH  39  41
ENDBRANCH  38  39
ENDBRANCH  31  38
BRANCH  27  43
ATOM     43  C   UNK d   0       5.119   5.961  47.369  0.00  0.00     0.052 C 
BRANCH  43  44
ATOM     44  C   UNK d   0       6.285   6.547  48.097  0.00  0.00     0.115 C 
BRANCH  44  45
ATOM     45  C   UNK d   0       6.703   5.541  49.108  0.00  0.00     0.139 C 
ATOM     46  O   UNK d   0       7.269   5.952  50.151  0.00  0.00    -0.650 OA
BRANCH  45  47
ATOM     47  O   UNK d   0       6.491   4.189  48.949  0.00  0.00    -0.776 OA
ATOM     48  H   UNK d   0       7.146   3.474  49.304  0.00  0.00     0.167 HD
ENDBRANCH  45  47
ENDBRANCH  44  45
ENDBRANCH  43  44
ENDBRANCH  27  43
BRANCH  24  49
ATOM     49  C   UNK d   0       4.613   1.322  44.389  0.00  0.00     0.052 C 
BRANCH  49  50
ATOM     50  C   UNK d   0       4.141   1.233  45.817  0.00  0.00     0.115 C 
BRANCH  50  51
ATOM     51  C   UNK d   0       4.896   1.979  46.815  0.00  0.00     0.139 C 
ATOM     52  O   UNK d   0       6.149   2.020  46.823  0.00  0.00    -0.650 OA
BRANCH  51  53
ATOM     53  O   UNK d   0       4.222   2.675  47.806  0.00  0.00    -0.776 OA
ATOM     54  H   UNK d   0       3.833   3.573  47.576  0.00  0.00     0.167 HD
ENDBRANCH  51  53
ENDBRANCH  50  51
ENDBRANCH  49  50
ENDBRANCH  24  49
BRANCH  21  55
ATOM     55  C   UNK d   0       2.390   0.874  42.290  0.00  0.00     0.151 C 
BRANCH  55  56
ATOM     56  C   UNK d   0       3.155   0.374  41.137  0.00  0.00     0.143 C 
ATOM     57  O   UNK d   0       3.823  -0.678  41.175  0.00  0.00    -0.650 OA
BRANCH  56  58
ATOM     58  O   UNK d   0       3.119   1.122  39.961  0.00  0.00    -0.776 OA
ATOM     59  H   UNK d   0       2.269   0.988  39.385  0.00  0.00     0.167 HD
ENDBRANCH  56  58
ENDBRANCH  55  56
ENDBRANCH  21  55
BRANCH  18  60
ATOM     60  C   UNK d   0       0.989   4.420  38.512  0.00  0.00     0.151 C 
BRANCH  60  61
ATOM     61  C   UNK d   0      -0.098   3.494  38.864  0.00  0.00     0.143 C 
ATOM     62  O   UNK d   0      -0.974   3.666  39.712  0.00  0.00    -0.650 OA
BRANCH  61  63
ATOM     63  O   UNK d   0      -0.116   2.281  38.134  0.00  0.00    -0.776 OA
ATOM     64  H   UNK d   0       0.664   1.649  38.159  0.00  0.00     0.167 HD
ENDBRANCH  61  63
ENDBRANCH  60  61
ENDBRANCH  18  60
BRANCH  14  65
ATOM     65  C   UNK d   0       0.500   7.394  38.152  0.00  0.00     0.052 C 
BRANCH  65  66
ATOM     66  C   UNK d   0       1.680   7.807  37.346  0.00  0.00     0.115 C 
BRANCH  66  67
ATOM     67  C   UNK d   0       1.694   9.097  36.714  0.00  0.00     0.139 C 
ATOM     68  O   UNK d   0       0.972  10.034  37.217  0.00  0.00    -0.650 OA
BRANCH  67  69
ATOM     69  O   UNK d   0       2.412   9.486  35.584  0.00  0.00    -0.776 OA
ATOM     70  H   UNK d   0       3.339   9.051  35.470  0.00  0.00     0.167 HD
ENDBRANCH  67  69
ENDBRANCH  66  67
ENDBRANCH  65  66
ENDBRANCH  14  65
ENDBRANCH   6   7
ENDBRANCH   5   6
ENDBRANCH   2   5
TORSDOF 28
ENDMDL
MODEL 9
REMARK VINA RESULT:      -8.6      2.375      9.247
REMARK  28 active torsions:
REMARK  status: ('A' for Active; 'I' for Inactive)
REMARK    1  A    between atoms: C_2  and  O_3 
REMARK    2  A    between atoms: C_2  and  C_4 
REMARK    3  A    between atoms: C_4  and  C_5 
REMARK    4  A    between atoms: C_5  and  C_6 
REMARK    5  A    between atoms: C_7  and  C_8 
REMARK    6  A    between atoms: C_8  and  C_9 
REMARK    7  A    between atoms: C_9  and  O_11 
REMARK    8  A    between atoms: C_28  and  C_29 
REMARK    9  A    between atoms: C_29  and  C_30 
REMARK   10  A    between atoms: C_30  and  O_32 
REMARK   11  A    between atoms: C_33  and  C_34 
REMARK   12  A    between atoms: C_34  and  C_35 
REMARK   13  A    between atoms: C_35  and  C_36 
REMARK   14  A    between atoms: C_36  and  O_38 
REMARK   15  A    between atoms: C_39  and  C_40 
REMARK   16  A    between atoms: C_40  and  C_41 
REMARK   17  A    between atoms: C_41  and  C_42 
REMARK   18  A    between atoms: C_42  and  O_44 
REMARK   19  A    between atoms: C_45  and  C_46 
REMARK   20  A    between atoms: C_46  and  C_47 
REMARK   21  A    between atoms: C_47  and  O_49 
REMARK   22  A    between atoms: C_50  and  C_51 
REMARK   23  A    between atoms: C_51  and  C_52 
REMARK   24  A    between atoms: C_52  and  O_54 
REMARK   25  A    between atoms: C_55  and  C_56 
REMARK   26  A    between atoms: C_56  and  C_57 
REMARK   27  A    between atoms: C_57  and  C_58 
REMARK   28  A    between atoms: C_58  and  O_60 
ROOT
ATOM      1  O   UNK d   0      32.749   3.244  39.383  0.00  0.00    -0.650 OA
ATOM      2  C   UNK d   0      32.542   2.143  38.826  0.00  0.00     0.139 C 
ENDROOT
BRANCH   2   3
ATOM      3  O   UNK d   0      33.560   1.539  38.128  0.00  0.00    -0.776 OA
ATOM      4  H   UNK d   0      34.026   0.705  38.491  0.00  0.00     0.167 HD
ENDBRANCH   2   3
BRANCH   2   5
ATOM      5  C   UNK d   0      31.203   1.496  38.921  0.00  0.00     0.115 C 
BRANCH   5   6
ATOM      6  C   UNK d   0      31.078   0.410  37.887  0.00  0.00     0.052 C 
BRANCH   6   7
ATOM      7  C   UNK d   0      31.495  -0.943  38.411  0.00  0.00    -0.020 A 
ATOM      8  C   UNK d   0      31.384  -2.100  37.811  0.00  0.00    -0.011 A 
ATOM      9  C   UNK d   0      31.912  -3.117  38.705  0.00  0.00     0.067 A 
ATOM     10  C   UNK d   0      32.098  -4.508  38.659  0.00  0.00     0.062 C 
ATOM     11  N   UNK d   0      32.318  -2.491  39.829  0.00  0.00    -0.248 NA
ATOM     12  C   UNK d   0      32.885  -5.286  39.515  0.00  0.00     0.041 A 
ATOM     13  N   UNK d   0      33.037  -5.254  40.853  0.00  0.00    -0.355 N 
ATOM     14  C   UNK d   0      33.736  -6.259  38.961  0.00  0.00    -0.022 A 
ATOM     15  C   UNK d   0      33.968  -6.177  41.161  0.00  0.00     0.042 A 
ATOM     16  H   UNK d   0      32.483  -4.606  41.567  0.00  0.00     0.166 HD
ATOM     17  C   UNK d   0      34.502  -6.555  42.409  0.00  0.00     0.062 C 
ATOM     18  C   UNK d   0      34.430  -6.827  40.000  0.00  0.00    -0.013 A 
ATOM     19  C   UNK d   0      34.922  -5.759  43.444  0.00  0.00     0.067 A 
ATOM     20  N   UNK d   0      34.618  -4.461  43.371  0.00  0.00    -0.248 NA
ATOM     21  C   UNK d   0      35.669  -5.955  44.675  0.00  0.00    -0.011 A 
ATOM     22  C   UNK d   0      35.114  -3.793  44.463  0.00  0.00     0.066 A 
ATOM     23  C   UNK d   0      34.837  -2.436  44.534  0.00  0.00     0.062 C 
ATOM     24  C   UNK d   0      35.782  -4.800  45.265  0.00  0.00    -0.020 A 
ATOM     25  C   UNK d   0      34.034  -1.675  43.670  0.00  0.00     0.041 A 
ATOM     26  N   UNK d   0      33.893  -1.697  42.340  0.00  0.00    -0.355 N 
ATOM     27  C   UNK d   0      33.177  -0.702  44.228  0.00  0.00    -0.022 A 
ATOM     28  C   UNK d   0      32.971  -0.772  42.029  0.00  0.00     0.042 A 
ATOM     29  H   UNK d   0      34.458  -2.341  41.622  0.00  0.00     0.166 HD
ATOM     30  C   UNK d   0      32.439  -0.378  40.792  0.00  0.00     0.062 C 
ATOM     31  C   UNK d   0      32.500  -0.126  43.197  0.00  0.00    -0.013 A 
ATOM     32  C   UNK d   0      32.095  -1.181  39.715  0.00  0.00     0.066 A 
BRANCH   8  33
ATOM     33  C   UNK d   0      30.822  -2.352  36.471  0.00  0.00     0.151 C 
BRANCH  33  34
ATOM     34  C   UNK d   0      29.521  -3.042  36.518  0.00  0.00     0.143 C 
ATOM     35  O   UNK d   0      28.860  -3.227  35.486  0.00  0.00    -0.650 OA
BRANCH  34  36
ATOM     36  O   UNK d   0      29.034  -3.484  37.727  0.00  0.00    -0.776 OA
ATOM     37  H   UNK d   0      29.482  -3.215  38.614  0.00  0.00     0.167 HD
ENDBRANCH  34  36
ENDBRANCH  33  34
ENDBRANCH   8  33
BRANCH  31  38
ATOM     38  C   UNK d   0      31.459   0.964  43.311  0.00  0.00     0.151 C 
BRANCH  38  39
ATOM     39  C   UNK d   0      32.010   2.289  43.120  0.00  0.00     0.143 C 
ATOM     40  O   UNK d   0      31.482   3.305  43.606  0.00  0.00    -0.650 OA
BRANCH  39  41
ATOM     41  O   UNK d   0      33.173   2.447  42.368  0.00  0.00    -0.776 OA
ATOM     42  H   UNK d   0      33.893   3.064  42.755  0.00  0.00     0.167 HD
ENDBRANCH  39  41
ENDBRANCH  38  39
ENDBRANCH  31  38
BRANCH  27  43
ATOM     43  C   UNK d   0      32.984  -0.308  45.671  0.00  0.00     0.052 C 
BRANCH  43  44
ATOM     44  C   UNK d   0      33.285   1.132  45.936  0.00  0.00     0.115 C 
BRANCH  44  45
ATOM     45  C   UNK d   0      34.561   1.166  46.696  0.00  0.00     0.139 C 
ATOM     46  O   UNK d   0      34.916   2.257  47.208  0.00  0.00    -0.650 OA
BRANCH  45  47
ATOM     47  O   UNK d   0      35.360   0.056  46.865  0.00  0.00    -0.776 OA
ATOM     48  H   UNK d   0      35.571  -0.347  47.793  0.00  0.00     0.167 HD
ENDBRANCH  45  47
ENDBRANCH  44  45
ENDBRANCH  43  44
ENDBRANCH  27  43
BRANCH  24  49
ATOM     49  C   UNK d   0      36.433  -4.546  46.561  0.00  0.00     0.052 C 
BRANCH  49  50
ATOM     50  C   UNK d   0      37.855  -4.091  46.353  0.00  0.00     0.115 C 
BRANCH  50  51
ATOM     51  C   UNK d   0      38.154  -2.695  46.641  0.00  0.00     0.139 C 
ATOM     52  O   UNK d   0      37.339  -1.931  47.209  0.00  0.00    -0.650 OA
BRANCH  51  53
ATOM     53  O   UNK d   0      39.384  -2.168  46.277  0.00  0.00    -0.776 OA
ATOM     54  H   UNK d   0      39.432  -1.601  45.449  0.00  0.00     0.167 HD
ENDBRANCH  51  53
ENDBRANCH  50  51
ENDBRANCH  49  50
ENDBRANCH  24  49
BRANCH  21  55
ATOM     55  C   UNK d   0      36.188  -7.276  45.136  0.00  0.00     0.151 C 
BRANCH  55  56
ATOM     56  C   UNK d   0      37.450  -7.636  44.470  0.00  0.00     0.143 C 
ATOM     57  O   UNK d   0      37.914  -6.989  43.510  0.00  0.00    -0.650 OA
BRANCH  56  58
ATOM     58  O   UNK d   0      38.141  -8.748  44.945  0.00  0.00    -0.776 OA
ATOM     59  H   UNK d   0      37.746  -9.173  45.804  0.00  0.00     0.167 HD
ENDBRANCH  56  58
ENDBRANCH  55  56
ENDBRANCH  21  55
BRANCH  18  60
ATOM     60  C   UNK d   0      35.463  -7.917  39.856  0.00  0.00     0.151 C 
BRANCH  60  61
ATOM     61  C   UNK d   0      36.720  -7.238  39.504  0.00  0.00     0.143 C 
ATOM     62  O   UNK d   0      37.075  -6.870  38.384  0.00  0.00    -0.650 OA
BRANCH  61  63
ATOM     63  O   UNK d   0      37.597  -6.994  40.587  0.00  0.00    -0.776 OA
ATOM     64  H   UNK d   0      38.331  -6.312  40.517  0.00  0.00     0.167 HD
ENDBRANCH  61  63
ENDBRANCH  60  61
ENDBRANCH  18  60
BRANCH  14  65
ATOM     65  C   UNK d   0      33.869  -6.756  37.549  0.00  0.00     0.052 C 
BRANCH  65  66
ATOM     66  C   UNK d   0      32.640  -7.431  37.052  0.00  0.00     0.115 C 
BRANCH  66  67
ATOM     67  C   UNK d   0      31.915  -6.865  35.949  0.00  0.00     0.139 C 
ATOM     68  O   UNK d   0      30.708  -6.468  36.147  0.00  0.00    -0.650 OA
BRANCH  67  69
ATOM     69  O   UNK d   0      32.359  -6.681  34.640  0.00  0.00    -0.776 OA
ATOM     70  H   UNK d   0      31.898  -5.926  34.113  0.00  0.00     0.167 HD
ENDBRANCH  67  69
ENDBRANCH  66  67
ENDBRANCH  65  66
ENDBRANCH  14  65
ENDBRANCH   6   7
ENDBRANCH   5   6
ENDBRANCH   2   5
TORSDOF 28
ENDMDL
MODEL 10
REMARK VINA RESULT:      -8.4     28.803     31.612
REMARK  28 active torsions:
REMARK  status: ('A' for Active; 'I' for Inactive)
REMARK    1  A    between atoms: C_2  and  O_3 
REMARK    2  A    between atoms: C_2  and  C_4 
REMARK    3  A    between atoms: C_4  and  C_5 
REMARK    4  A    between atoms: C_5  and  C_6 
REMARK    5  A    between atoms: C_7  and  C_8 
REMARK    6  A    between atoms: C_8  and  C_9 
REMARK    7  A    between atoms: C_9  and  O_11 
REMARK    8  A    between atoms: C_28  and  C_29 
REMARK    9  A    between atoms: C_29  and  C_30 
REMARK   10  A    between atoms: C_30  and  O_32 
REMARK   11  A    between atoms: C_33  and  C_34 
REMARK   12  A    between atoms: C_34  and  C_35 
REMARK   13  A    between atoms: C_35  and  C_36 
REMARK   14  A    between atoms: C_36  and  O_38 
REMARK   15  A    between atoms: C_39  and  C_40 
REMARK   16  A    between atoms: C_40  and  C_41 
REMARK   17  A    between atoms: C_41  and  C_42 
REMARK   18  A    between atoms: C_42  and  O_44 
REMARK   19  A    between atoms: C_45  and  C_46 
REMARK   20  A    between atoms: C_46  and  C_47 
REMARK   21  A    between atoms: C_47  and  O_49 
REMARK   22  A    between atoms: C_50  and  C_51 
REMARK   23  A    between atoms: C_51  and  C_52 
REMARK   24  A    between atoms: C_52  and  O_54 
REMARK   25  A    between atoms: C_55  and  C_56 
REMARK   26  A    between atoms: C_56  and  C_57 
REMARK   27  A    between atoms: C_57  and  C_58 
REMARK   28  A    between atoms: C_58  and  O_60 
ROOT
ATOM      1  O   UNK d   0       7.971  10.877  49.012  0.00  0.00    -0.650 OA
ATOM      2  C   UNK d   0       8.315  10.520  47.863  0.00  0.00     0.139 C 
ENDROOT
BRANCH   2   3
ATOM      3  O   UNK d   0       9.232   9.507  47.719  0.00  0.00    -0.776 OA
ATOM      4  H   UNK d   0      10.076   9.635  47.156  0.00  0.00     0.167 HD
ENDBRANCH   2   3
BRANCH   2   5
ATOM      5  C   UNK d   0       7.734  11.191  46.666  0.00  0.00     0.115 C 
BRANCH   5   6
ATOM      6  C   UNK d   0       6.373  11.743  46.992  0.00  0.00     0.052 C 
BRANCH   6   7
ATOM      7  C   UNK d   0       5.311  11.281  46.023  0.00  0.00    -0.020 A 
ATOM      8  C   UNK d   0       4.445  12.018  45.376  0.00  0.00    -0.011 A 
ATOM      9  C   UNK d   0       3.622  11.133  44.569  0.00  0.00     0.067 A 
ATOM     10  C   UNK d   0       2.563  11.284  43.660  0.00  0.00     0.062 C 
ATOM     11  N   UNK d   0       4.053   9.873  44.790  0.00  0.00    -0.248 NA
ATOM     12  C   UNK d   0       2.075  10.328  42.761  0.00  0.00     0.041 A 
ATOM     13  N   UNK d   0       1.832   9.013  42.912  0.00  0.00    -0.355 N 
ATOM     14  C   UNK d   0       1.819  10.713  41.433  0.00  0.00    -0.022 A 
ATOM     15  C   UNK d   0       1.435   8.550  41.711  0.00  0.00     0.042 A 
ATOM     16  H   UNK d   0       1.920   8.426  43.853  0.00  0.00     0.166 HD
ATOM     17  C   UNK d   0       1.057   7.253  41.311  0.00  0.00     0.062 C 
ATOM     18  C   UNK d   0       1.415   9.587  40.758  0.00  0.00    -0.013 A 
ATOM     19  C   UNK d   0       1.659   6.054  41.594  0.00  0.00     0.067 A 
ATOM     20  N   UNK d   0       2.614   6.062  42.527  0.00  0.00    -0.248 NA
ATOM     21  C   UNK d   0       1.542   4.687  41.114  0.00  0.00    -0.011 A 
ATOM     22  C   UNK d   0       3.132   4.800  42.690  0.00  0.00     0.066 A 
ATOM     23  C   UNK d   0       4.112   4.657  43.661  0.00  0.00     0.062 C 
ATOM     24  C   UNK d   0       2.409   3.959  41.756  0.00  0.00    -0.020 A 
ATOM     25  C   UNK d   0       4.579   5.626  44.562  0.00  0.00     0.041 A 
ATOM     26  N   UNK d   0       4.836   6.931  44.408  0.00  0.00    -0.355 N 
ATOM     27  C   UNK d   0       4.832   5.241  45.897  0.00  0.00    -0.022 A 
ATOM     28  C   UNK d   0       5.240   7.392  45.602  0.00  0.00     0.042 A 
ATOM     29  H   UNK d   0       4.757   7.516  43.459  0.00  0.00     0.166 HD
ATOM     30  C   UNK d   0       5.628   8.678  46.012  0.00  0.00     0.062 C 
ATOM     31  C   UNK d   0       5.250   6.352  46.562  0.00  0.00    -0.013 A 
ATOM     32  C   UNK d   0       5.068   9.894  45.655  0.00  0.00     0.066 A 
BRANCH   8  33
ATOM     33  C   UNK d   0       4.306  13.485  45.443  0.00  0.00     0.151 C 
BRANCH  33  34
ATOM     34  C   UNK d   0       2.988  13.911  45.946  0.00  0.00     0.143 C 
ATOM     35  O   UNK d   0       2.528  15.025  45.660  0.00  0.00    -0.650 OA
BRANCH  34  36
ATOM     36  O   UNK d   0       2.262  13.058  46.745  0.00  0.00    -0.776 OA
ATOM     37  H   UNK d   0       2.224  13.184  47.765  0.00  0.00     0.167 HD
ENDBRANCH  34  36
ENDBRANCH  33  34
ENDBRANCH   8  33
BRANCH  31  38
ATOM     38  C   UNK d   0       5.624   6.428  48.024  0.00  0.00     0.151 C 
BRANCH  38  39
ATOM     39  C   UNK d   0       7.054   6.383  48.241  0.00  0.00     0.143 C 
ATOM     40  O   UNK d   0       7.853   7.042  47.553  0.00  0.00    -0.650 OA
BRANCH  39  41
ATOM     41  O   UNK d   0       7.569   5.575  49.254  0.00  0.00    -0.776 OA
ATOM     42  H   UNK d   0       8.220   4.836  48.970  0.00  0.00     0.167 HD
ENDBRANCH  39  41
ENDBRANCH  38  39
ENDBRANCH  31  38
BRANCH  27  43
ATOM     43  C   UNK d   0       4.696   3.886  46.545  0.00  0.00     0.052 C 
BRANCH  43  44
ATOM     44  C   UNK d   0       4.938   2.753  45.602  0.00  0.00     0.115 C 
BRANCH  44  45
ATOM     45  C   UNK d   0       4.714   1.503  46.374  0.00  0.00     0.139 C 
ATOM     46  O   UNK d   0       3.550   1.032  46.413  0.00  0.00    -0.650 OA
BRANCH  45  47
ATOM     47  O   UNK d   0       5.726   0.843  47.038  0.00  0.00    -0.776 OA
ATOM     48  H   UNK d   0       6.366   1.317  47.695  0.00  0.00     0.167 HD
ENDBRANCH  45  47
ENDBRANCH  44  45
ENDBRANCH  43  44
ENDBRANCH  27  43
BRANCH  24  49
ATOM     49  C   UNK d   0       2.604   2.507  41.608  0.00  0.00     0.052 C 
BRANCH  49  50
ATOM     50  C   UNK d   0       3.420   2.210  40.376  0.00  0.00     0.115 C 
BRANCH  50  51
ATOM     51  C   UNK d   0       2.779   1.430  39.326  0.00  0.00     0.139 C 
ATOM     52  O   UNK d   0       3.157   1.465  38.131  0.00  0.00    -0.650 OA
BRANCH  51  53
ATOM     53  O   UNK d   0       1.704   0.612  39.638  0.00  0.00    -0.776 OA
ATOM     54  H   UNK d   0       1.247   0.121  38.889  0.00  0.00     0.167 HD
ENDBRANCH  51  53
ENDBRANCH  50  51
ENDBRANCH  49  50
ENDBRANCH  24  49
BRANCH  21  55
ATOM     55  C   UNK d   0       0.572   4.251  40.066  0.00  0.00     0.151 C 
BRANCH  55  56
ATOM     56  C   UNK d   0      -0.471   3.370  40.613  0.00  0.00     0.143 C 
ATOM     57  O   UNK d   0      -1.179   3.687  41.589  0.00  0.00    -0.650 OA
BRANCH  56  58
ATOM     58  O   UNK d   0      -0.663   2.132  40.000  0.00  0.00    -0.776 OA
ATOM     59  H   UNK d   0      -1.330   1.504  40.485  0.00  0.00     0.167 HD
ENDBRANCH  56  58
ENDBRANCH  55  56
ENDBRANCH  21  55
BRANCH  18  60
ATOM     60  C   UNK d   0       1.044   9.542  39.297  0.00  0.00     0.151 C 
BRANCH  60  61
ATOM     61  C   UNK d   0       2.302   9.321  38.568  0.00  0.00     0.143 C 
ATOM     62  O   UNK d   0       3.060   8.356  38.671  0.00  0.00    -0.650 OA
BRANCH  61  63
ATOM     63  O   UNK d   0       2.656  10.342  37.654  0.00  0.00    -0.776 OA
ATOM     64  H   UNK d   0       2.961  10.122  36.722  0.00  0.00     0.167 HD
ENDBRANCH  61  63
ENDBRANCH  60  61
ENDBRANCH  18  60
BRANCH  14  65
ATOM     65  C   UNK d   0       1.832  12.067  40.783  0.00  0.00     0.052 C 
BRANCH  65  66
ATOM     66  C   UNK d   0       3.185  12.685  40.754  0.00  0.00     0.115 C 
BRANCH  66  67
ATOM     67  C   UNK d   0       4.336  11.866  40.497  0.00  0.00     0.139 C 
ATOM     68  O   UNK d   0       4.622  11.573  39.278  0.00  0.00    -0.650 OA
BRANCH  67  69
ATOM     69  O   UNK d   0       5.221  11.323  41.428  0.00  0.00    -0.776 OA
ATOM     70  H   UNK d   0       6.193  11.207  41.107  0.00  0.00     0.167 HD
ENDBRANCH  67  69
ENDBRANCH  66  67
ENDBRANCH  65  66
ENDBRANCH  14  65
ENDBRANCH   6   7
ENDBRANCH   5   6
ENDBRANCH   2   5
TORSDOF 28
ENDMDL
MODEL 11
REMARK VINA RESULT:      -8.3      2.080      9.097
REMARK  28 active torsions:
REMARK  status: ('A' for Active; 'I' for Inactive)
REMARK    1  A    between atoms: C_2  and  O_3 
REMARK    2  A    between atoms: C_2  and  C_4 
REMARK    3  A    between atoms: C_4  and  C_5 
REMARK    4  A    between atoms: C_5  and  C_6 
REMARK    5  A    between atoms: C_7  and  C_8 
REMARK    6  A    between atoms: C_8  and  C_9 
REMARK    7  A    between atoms: C_9  and  O_11 
REMARK    8  A    between atoms: C_28  and  C_29 
REMARK    9  A    between atoms: C_29  and  C_30 
REMARK   10  A    between atoms: C_30  and  O_32 
REMARK   11  A    between atoms: C_33  and  C_34 
REMARK   12  A    between atoms: C_34  and  C_35 
REMARK   13  A    between atoms: C_35  and  C_36 
REMARK   14  A    between atoms: C_36  and  O_38 
REMARK   15  A    between atoms: C_39  and  C_40 
REMARK   16  A    between atoms: C_40  and  C_41 
REMARK   17  A    between atoms: C_41  and  C_42 
REMARK   18  A    between atoms: C_42  and  O_44 
REMARK   19  A    between atoms: C_45  and  C_46 
REMARK   20  A    between atoms: C_46  and  C_47 
REMARK   21  A    between atoms: C_47  and  O_49 
REMARK   22  A    between atoms: C_50  and  C_51 
REMARK   23  A    between atoms: C_51  and  C_52 
REMARK   24  A    between atoms: C_52  and  O_54 
REMARK   25  A    between atoms: C_55  and  C_56 
REMARK   26  A    between atoms: C_56  and  C_57 
REMARK   27  A    between atoms: C_57  and  C_58 
REMARK   28  A    between atoms: C_58  and  O_60 
ROOT
ATOM      1  O   UNK d   0      35.186   1.734  38.027  0.00  0.00    -0.650 OA
ATOM      2  C   UNK d   0      34.803   2.846  38.453  0.00  0.00     0.139 C 
ENDROOT
BRANCH   2   3
ATOM      3  O   UNK d   0      35.533   3.970  38.153  0.00  0.00    -0.776 OA
ATOM      4  H   UNK d   0      35.658   4.717  38.840  0.00  0.00     0.167 HD
ENDBRANCH   2   3
BRANCH   2   5
ATOM      5  C   UNK d   0      33.565   2.945  39.277  0.00  0.00     0.115 C 
BRANCH   5   6
ATOM      6  C   UNK d   0      32.472   2.105  38.674  0.00  0.00     0.052 C 
BRANCH   6   7
ATOM      7  C   UNK d   0      32.459   0.695  39.214  0.00  0.00    -0.020 A 
ATOM      8  C   UNK d   0      32.071  -0.392  38.598  0.00  0.00    -0.011 A 
ATOM      9  C   UNK d   0      32.230  -1.506  39.518  0.00  0.00     0.067 A 
ATOM     10  C   UNK d   0      32.024  -2.894  39.474  0.00  0.00     0.062 C 
ATOM     11  N   UNK d   0      32.716  -1.005  40.673  0.00  0.00    -0.248 NA
ATOM     12  C   UNK d   0      32.501  -3.851  40.376  0.00  0.00     0.041 A 
ATOM     13  N   UNK d   0      32.563  -3.848  41.721  0.00  0.00    -0.355 N 
ATOM     14  C   UNK d   0      33.082  -5.029  39.874  0.00  0.00    -0.022 A 
ATOM     15  C   UNK d   0      33.177  -4.990  42.085  0.00  0.00     0.042 A 
ATOM     16  H   UNK d   0      32.164  -3.063  42.401  0.00  0.00     0.166 HD
ATOM     17  C   UNK d   0      33.496  -5.488  43.364  0.00  0.00     0.062 C 
ATOM     18  C   UNK d   0      33.517  -5.756  40.954  0.00  0.00    -0.013 A 
ATOM     19  C   UNK d   0      34.049  -4.829  44.432  0.00  0.00     0.067 A 
ATOM     20  N   UNK d   0      34.125  -3.499  44.349  0.00  0.00    -0.248 NA
ATOM     21  C   UNK d   0      34.625  -5.212  45.711  0.00  0.00    -0.011 A 
ATOM     22  C   UNK d   0      34.711  -2.984  45.479  0.00  0.00     0.066 A 
ATOM     23  C   UNK d   0      34.820  -1.602  45.542  0.00  0.00     0.062 C 
ATOM     24  C   UNK d   0      35.015  -4.128  46.316  0.00  0.00    -0.020 A 
ATOM     25  C   UNK d   0      34.323  -0.658  44.631  0.00  0.00     0.041 A 
ATOM     26  N   UNK d   0      34.274  -0.654  43.293  0.00  0.00    -0.355 N 
ATOM     27  C   UNK d   0      33.735   0.523  45.136  0.00  0.00    -0.022 A 
ATOM     28  C   UNK d   0      33.671   0.488  42.928  0.00  0.00     0.042 A 
ATOM     29  H   UNK d   0      34.685  -1.439  42.612  0.00  0.00     0.166 HD
ATOM     30  C   UNK d   0      33.355   1.000  41.660  0.00  0.00     0.062 C 
ATOM     31  C   UNK d   0      33.319   1.253  44.065  0.00  0.00    -0.013 A 
ATOM     32  C   UNK d   0      32.877   0.314  40.555  0.00  0.00     0.066 A 
BRANCH   8  33
ATOM     33  C   UNK d   0      31.554  -0.493  37.221  0.00  0.00     0.151 C 
BRANCH  33  34
ATOM     34  C   UNK d   0      30.805  -1.739  36.981  0.00  0.00     0.143 C 
ATOM     35  O   UNK d   0      29.631  -1.858  37.358  0.00  0.00    -0.650 OA
BRANCH  34  36
ATOM     36  O   UNK d   0      31.422  -2.784  36.332  0.00  0.00    -0.776 OA
ATOM     37  H   UNK d   0      32.333  -2.661  35.868  0.00  0.00     0.167 HD
ENDBRANCH  34  36
ENDBRANCH  33  34
ENDBRANCH   8  33
BRANCH  31  38
ATOM     38  C   UNK d   0      32.619   2.591  44.117  0.00  0.00     0.151 C 
BRANCH  38  39
ATOM     39  C   UNK d   0      31.179   2.474  44.025  0.00  0.00     0.143 C 
ATOM     40  O   UNK d   0      30.463   2.265  45.020  0.00  0.00    -0.650 OA
BRANCH  39  41
ATOM     41  O   UNK d   0      30.558   2.600  42.782  0.00  0.00    -0.776 OA
ATOM     42  H   UNK d   0      30.098   3.494  42.585  0.00  0.00     0.167 HD
ENDBRANCH  39  41
ENDBRANCH  38  39
ENDBRANCH  31  38
BRANCH  27  43
ATOM     43  C   UNK d   0      33.561   0.971  46.566  0.00  0.00     0.052 C 
BRANCH  43  44
ATOM     44  C   UNK d   0      34.360   2.188  46.905  0.00  0.00     0.115 C 
BRANCH  44  45
ATOM     45  C   UNK d   0      35.482   1.732  47.766  0.00  0.00     0.139 C 
ATOM     46  O   UNK d   0      35.875   2.499  48.681  0.00  0.00    -0.650 OA
BRANCH  45  47
ATOM     47  O   UNK d   0      36.099   0.511  47.606  0.00  0.00    -0.776 OA
ATOM     48  H   UNK d   0      37.010   0.282  48.036  0.00  0.00     0.167 HD
ENDBRANCH  45  47
ENDBRANCH  44  45
ENDBRANCH  43  44
ENDBRANCH  27  43
BRANCH  24  49
ATOM     49  C   UNK d   0      35.620  -4.052  47.657  0.00  0.00     0.052 C 
BRANCH  49  50
ATOM     50  C   UNK d   0      37.112  -4.247  47.570  0.00  0.00     0.115 C 
BRANCH  50  51
ATOM     51  C   UNK d   0      37.934  -3.049  47.457  0.00  0.00     0.139 C 
ATOM     52  O   UNK d   0      39.097  -3.069  46.989  0.00  0.00    -0.650 OA
BRANCH  51  53
ATOM     53  O   UNK d   0      37.430  -1.829  47.879  0.00  0.00    -0.776 OA
ATOM     54  H   UNK d   0      37.313  -1.678  48.866  0.00  0.00     0.167 HD
ENDBRANCH  51  53
ENDBRANCH  50  51
ENDBRANCH  49  50
ENDBRANCH  24  49
BRANCH  21  55
ATOM     55  C   UNK d   0      34.722  -6.621  46.195  0.00  0.00     0.151 C 
BRANCH  55  56
ATOM     56  C   UNK d   0      33.545  -7.015  46.984  0.00  0.00     0.143 C 
ATOM     57  O   UNK d   0      32.414  -7.165  46.480  0.00  0.00    -0.650 OA
BRANCH  56  58
ATOM     58  O   UNK d   0      33.720  -7.225  48.351  0.00  0.00    -0.776 OA
ATOM     59  H   UNK d   0      34.243  -8.085  48.596  0.00  0.00     0.167 HD
ENDBRANCH  56  58
ENDBRANCH  55  56
ENDBRANCH  21  55
BRANCH  18  60
ATOM     60  C   UNK d   0      34.213  -7.093  40.873  0.00  0.00     0.151 C 
BRANCH  60  61
ATOM     61  C   UNK d   0      35.624  -6.797  40.582  0.00  0.00     0.143 C 
ATOM     62  O   UNK d   0      36.234  -7.041  39.541  0.00  0.00    -0.650 OA
BRANCH  61  63
ATOM     63  O   UNK d   0      36.334  -6.162  41.630  0.00  0.00    -0.776 OA
ATOM     64  H   UNK d   0      37.230  -5.738  41.466  0.00  0.00     0.167 HD
ENDBRANCH  61  63
ENDBRANCH  60  61
ENDBRANCH  18  60
BRANCH  14  65
ATOM     65  C   UNK d   0      33.169  -5.560  38.471  0.00  0.00     0.052 C 
BRANCH  65  66
ATOM     66  C   UNK d   0      31.839  -5.704  37.821  0.00  0.00     0.115 C 
BRANCH  66  67
ATOM     67  C   UNK d   0      31.757  -5.873  36.397  0.00  0.00     0.139 C 
ATOM     68  O   UNK d   0      30.634  -5.640  35.815  0.00  0.00    -0.650 OA
BRANCH  67  69
ATOM     69  O   UNK d   0      32.770  -6.270  35.525  0.00  0.00    -0.776 OA
ATOM     70  H   UNK d   0      32.532  -7.041  34.884  0.00  0.00     0.167 HD
ENDBRANCH  67  69
ENDBRANCH  66  67
ENDBRANCH  65  66
ENDBRANCH  14  65
ENDBRANCH   6   7
ENDBRANCH   5   6
ENDBRANCH   2   5
TORSDOF 28
ENDMDL
MODEL 12
REMARK VINA RESULT:      -8.2      1.983      3.271
REMARK  28 active torsions:
REMARK  status: ('A' for Active; 'I' for Inactive)
REMARK    1  A    between atoms: C_2  and  O_3 
REMARK    2  A    between atoms: C_2  and  C_4 
REMARK    3  A    between atoms: C_4  and  C_5 
REMARK    4  A    between atoms: C_5  and  C_6 
REMARK    5  A    between atoms: C_7  and  C_8 
REMARK    6  A    between atoms: C_8  and  C_9 
REMARK    7  A    between atoms: C_9  and  O_11 
REMARK    8  A    between atoms: C_28  and  C_29 
REMARK    9  A    between atoms: C_29  and  C_30 
REMARK   10  A    between atoms: C_30  and  O_32 
REMARK   11  A    between atoms: C_33  and  C_34 
REMARK   12  A    between atoms: C_34  and  C_35 
REMARK   13  A    between atoms: C_35  and  C_36 
REMARK   14  A    between atoms: C_36  and  O_38 
REMARK   15  A    between atoms: C_39  and  C_40 
REMARK   16  A    between atoms: C_40  and  C_41 
REMARK   17  A    between atoms: C_41  and  C_42 
REMARK   18  A    between atoms: C_42  and  O_44 
REMARK   19  A    between atoms: C_45  and  C_46 
REMARK   20  A    between atoms: C_46  and  C_47 
REMARK   21  A    between atoms: C_47  and  O_49 
REMARK   22  A    between atoms: C_50  and  C_51 
REMARK   23  A    between atoms: C_51  and  C_52 
REMARK   24  A    between atoms: C_52  and  O_54 
REMARK   25  A    between atoms: C_55  and  C_56 
REMARK   26  A    between atoms: C_56  and  C_57 
REMARK   27  A    between atoms: C_57  and  C_58 
REMARK   28  A    between atoms: C_58  and  O_60 
ROOT
ATOM      1  O   UNK d   0      34.383  -5.305  49.412  0.00  0.00    -0.650 OA
ATOM      2  C   UNK d   0      34.463  -6.174  48.515  0.00  0.00     0.139 C 
ENDROOT
BRANCH   2   3
ATOM      3  O   UNK d   0      33.352  -6.916  48.196  0.00  0.00    -0.776 OA
ATOM      4  H   UNK d   0      33.364  -7.572  47.412  0.00  0.00     0.167 HD
ENDBRANCH   2   3
BRANCH   2   5
ATOM      5  C   UNK d   0      35.754  -6.398  47.804  0.00  0.00     0.115 C 
BRANCH   5   6
ATOM      6  C   UNK d   0      36.335  -5.083  47.359  0.00  0.00     0.052 C 
BRANCH   6   7
ATOM      7  C   UNK d   0      35.473  -4.383  46.336  0.00  0.00    -0.020 A 
ATOM      8  C   UNK d   0      34.929  -3.196  46.428  0.00  0.00    -0.011 A 
ATOM      9  C   UNK d   0      34.182  -2.953  45.206  0.00  0.00     0.067 A 
ATOM     10  C   UNK d   0      33.415  -1.901  44.680  0.00  0.00     0.062 C 
ATOM     11  N   UNK d   0      34.321  -4.046  44.427  0.00  0.00    -0.248 NA
ATOM     12  C   UNK d   0      32.998  -1.737  43.354  0.00  0.00     0.041 A 
ATOM     13  N   UNK d   0      32.500  -2.618  42.466  0.00  0.00    -0.355 N 
ATOM     14  C   UNK d   0      33.139  -0.476  42.748  0.00  0.00    -0.022 A 
ATOM     15  C   UNK d   0      32.329  -1.950  41.310  0.00  0.00     0.042 A 
ATOM     16  H   UNK d   0      32.256  -3.686  42.659  0.00  0.00     0.166 HD
ATOM     17  C   UNK d   0      31.837  -2.391  40.065  0.00  0.00     0.062 C 
ATOM     18  C   UNK d   0      32.719  -0.604  41.447  0.00  0.00    -0.013 A 
ATOM     19  C   UNK d   0      32.135  -3.540  39.378  0.00  0.00     0.067 A 
ATOM     20  N   UNK d   0      32.825  -4.476  40.035  0.00  0.00    -0.248 NA
ATOM     21  C   UNK d   0      31.900  -4.045  38.035  0.00  0.00    -0.011 A 
ATOM     22  C   UNK d   0      33.060  -5.555  39.219  0.00  0.00     0.066 A 
ATOM     23  C   UNK d   0      33.739  -6.622  39.789  0.00  0.00     0.062 C 
ATOM     24  C   UNK d   0      32.448  -5.223  37.948  0.00  0.00    -0.020 A 
ATOM     25  C   UNK d   0      34.138  -6.773  41.126  0.00  0.00     0.041 A 
ATOM     26  N   UNK d   0      34.647  -5.901  42.004  0.00  0.00    -0.355 N 
ATOM     27  C   UNK d   0      33.992  -8.038  41.735  0.00  0.00    -0.022 A 
ATOM     28  C   UNK d   0      34.827  -6.567  43.156  0.00  0.00     0.042 A 
ATOM     29  H   UNK d   0      34.902  -4.831  41.806  0.00  0.00     0.166 HD
ATOM     30  C   UNK d   0      35.324  -6.143  44.399  0.00  0.00     0.062 C 
ATOM     31  C   UNK d   0      34.425  -7.917  43.020  0.00  0.00    -0.013 A 
ATOM     32  C   UNK d   0      35.087  -4.943  45.050  0.00  0.00     0.066 A 
BRANCH   8  33
ATOM     33  C   UNK d   0      35.036  -2.259  47.562  0.00  0.00     0.151 C 
BRANCH  33  34
ATOM     34  C   UNK d   0      36.011  -1.180  47.320  0.00  0.00     0.143 C 
ATOM     35  O   UNK d   0      37.227  -1.381  47.444  0.00  0.00    -0.650 OA
BRANCH  34  36
ATOM     36  O   UNK d   0      35.561   0.067  46.952  0.00  0.00    -0.776 OA
ATOM     37  H   UNK d   0      36.169   0.895  47.015  0.00  0.00     0.167 HD
ENDBRANCH  34  36
ENDBRANCH  33  34
ENDBRANCH   8  33
BRANCH  31  38
ATOM     38  C   UNK d   0      34.445  -9.011  44.061  0.00  0.00     0.151 C 
BRANCH  38  39
ATOM     39  C   UNK d   0      33.467  -8.807  45.109  0.00  0.00     0.143 C 
ATOM     40  O   UNK d   0      33.719  -9.026  46.307  0.00  0.00    -0.650 OA
BRANCH  39  41
ATOM     41  O   UNK d   0      32.193  -8.347  44.778  0.00  0.00    -0.776 OA
ATOM     42  H   UNK d   0      31.929  -8.391  43.789  0.00  0.00     0.167 HD
ENDBRANCH  39  41
ENDBRANCH  38  39
ENDBRANCH  31  38
BRANCH  27  43
ATOM     43  C   UNK d   0      33.470  -9.328  41.153  0.00  0.00     0.052 C 
BRANCH  43  44
ATOM     44  C   UNK d   0      33.349 -10.425  42.160  0.00  0.00     0.115 C 
BRANCH  44  45
ATOM     45  C   UNK d   0      31.948 -10.914  42.089  0.00  0.00     0.139 C 
ATOM     46  O   UNK d   0      31.155 -10.573  43.001  0.00  0.00    -0.650 OA
BRANCH  45  47
ATOM     47  O   UNK d   0      31.487 -11.716  41.067  0.00  0.00    -0.776 OA
ATOM     48  H   UNK d   0      31.244 -12.711  41.202  0.00  0.00     0.167 HD
ENDBRANCH  45  47
ENDBRANCH  44  45
ENDBRANCH  43  44
ENDBRANCH  27  43
BRANCH  24  49
ATOM     49  C   UNK d   0      32.416  -6.110  36.772  0.00  0.00     0.052 C 
BRANCH  49  50
ATOM     50  C   UNK d   0      31.256  -7.068  36.869  0.00  0.00     0.115 C 
BRANCH  50  51
ATOM     51  C   UNK d   0      30.318  -7.091  35.755  0.00  0.00     0.139 C 
ATOM     52  O   UNK d   0      30.481  -6.404  34.719  0.00  0.00    -0.650 OA
BRANCH  51  53
ATOM     53  O   UNK d   0      29.192  -7.897  35.823  0.00  0.00    -0.776 OA
ATOM     54  H   UNK d   0      28.553  -7.888  35.048  0.00  0.00     0.167 HD
ENDBRANCH  51  53
ENDBRANCH  50  51
ENDBRANCH  49  50
ENDBRANCH  24  49
BRANCH  21  55
ATOM     55  C   UNK d   0      31.149  -3.300  36.982  0.00  0.00     0.151 C 
BRANCH  55  56
ATOM     56  C   UNK d   0      29.717  -3.634  36.985  0.00  0.00     0.143 C 
ATOM     57  O   UNK d   0      29.024  -3.644  35.949  0.00  0.00    -0.650 OA
BRANCH  56  58
ATOM     58  O   UNK d   0      29.127  -3.952  38.207  0.00  0.00    -0.776 OA
ATOM     59  H   UNK d   0      29.536  -4.772  38.689  0.00  0.00     0.167 HD
ENDBRANCH  56  58
ENDBRANCH  55  56
ENDBRANCH  21  55
BRANCH  18  60
ATOM     60  C   UNK d   0      32.707   0.509  40.429  0.00  0.00     0.151 C 
BRANCH  60  61
ATOM     61  C   UNK d   0      31.400   1.168  40.565  0.00  0.00     0.143 C 
ATOM     62  O   UNK d   0      30.828   1.473  41.613  0.00  0.00    -0.650 OA
BRANCH  61  63
ATOM     63  O   UNK d   0      30.749   1.474  39.346  0.00  0.00    -0.776 OA
ATOM     64  H   UNK d   0      30.509   2.421  39.110  0.00  0.00     0.167 HD
ENDBRANCH  61  63
ENDBRANCH  60  61
ENDBRANCH  18  60
BRANCH  14  65
ATOM     65  C   UNK d   0      33.544   0.851  43.326  0.00  0.00     0.052 C 
BRANCH  65  66
ATOM     66  C   UNK d   0      32.822   1.182  44.583  0.00  0.00     0.115 C 
BRANCH  66  67
ATOM     67  C   UNK d   0      31.401   1.382  44.557  0.00  0.00     0.139 C 
ATOM     68  O   UNK d   0      30.949   2.585  44.597  0.00  0.00    -0.650 OA
BRANCH  67  69
ATOM     69  O   UNK d   0      30.403   0.409  44.491  0.00  0.00    -0.776 OA
ATOM     70  H   UNK d   0      30.214   0.024  43.555  0.00  0.00     0.167 HD
ENDBRANCH  67  69
ENDBRANCH  66  67
ENDBRANCH  65  66
ENDBRANCH  14  65
ENDBRANCH   6   7
ENDBRANCH   5   6
ENDBRANCH   2   5
TORSDOF 28
ENDMDL
MODEL 13
REMARK VINA RESULT:      -8.1     29.731     33.151
REMARK  28 active torsions:
REMARK  status: ('A' for Active; 'I' for Inactive)
REMARK    1  A    between atoms: C_2  and  O_3 
REMARK    2  A    between atoms: C_2  and  C_4 
REMARK    3  A    between atoms: C_4  and  C_5 
REMARK    4  A    between atoms: C_5  and  C_6 
REMARK    5  A    between atoms: C_7  and  C_8 
REMARK    6  A    between atoms: C_8  and  C_9 
REMARK    7  A    between atoms: C_9  and  O_11 
REMARK    8  A    between atoms: C_28  and  C_29 
REMARK    9  A    between atoms: C_29  and  C_30 
REMARK   10  A    between atoms: C_30  and  O_32 
REMARK   11  A    between atoms: C_33  and  C_34 
REMARK   12  A    between atoms: C_34  and  C_35 
REMARK   13  A    between atoms: C_35  and  C_36 
REMARK   14  A    between atoms: C_36  and  O_38 
REMARK   15  A    between atoms: C_39  and  C_40 
REMARK   16  A    between atoms: C_40  and  C_41 
REMARK   17  A    between atoms: C_41  and  C_42 
REMARK   18  A    between atoms: C_42  and  O_44 
REMARK   19  A    between atoms: C_45  and  C_46 
REMARK   20  A    between atoms: C_46  and  C_47 
REMARK   21  A    between atoms: C_47  and  O_49 
REMARK   22  A    between atoms: C_50  and  C_51 
REMARK   23  A    between atoms: C_51  and  C_52 
REMARK   24  A    between atoms: C_52  and  O_54 
REMARK   25  A    between atoms: C_55  and  C_56 
REMARK   26  A    between atoms: C_56  and  C_57 
REMARK   27  A    between atoms: C_57  and  C_58 
REMARK   28  A    between atoms: C_58  and  O_60 
ROOT
ATOM      1  O   UNK d   0       3.064  10.810  39.169  0.00  0.00    -0.650 OA
ATOM      2  C   UNK d   0       1.888  10.499  39.460  0.00  0.00     0.139 C 
ENDROOT
BRANCH   2   3
ATOM      3  O   UNK d   0       1.481  10.551  40.771  0.00  0.00    -0.776 OA
ATOM      4  H   UNK d   0       1.164   9.711  41.259  0.00  0.00     0.167 HD
ENDBRANCH   2   3
BRANCH   2   5
ATOM      5  C   UNK d   0       0.940  10.075  38.390  0.00  0.00     0.115 C 
BRANCH   5   6
ATOM      6  C   UNK d   0       1.651  10.005  37.066  0.00  0.00     0.052 C 
BRANCH   6   7
ATOM      7  C   UNK d   0       1.694   8.604  36.503  0.00  0.00    -0.020 A 
ATOM      8  C   UNK d   0       1.895   8.250  35.260  0.00  0.00    -0.011 A 
ATOM      9  C   UNK d   0       1.841   6.799  35.197  0.00  0.00     0.067 A 
ATOM     10  C   UNK d   0       1.992   5.822  34.200  0.00  0.00     0.062 C 
ATOM     11  N   UNK d   0       1.596   6.352  36.446  0.00  0.00    -0.248 NA
ATOM     12  C   UNK d   0       2.182   4.448  34.382  0.00  0.00     0.041 A 
ATOM     13  N   UNK d   0       1.597   3.576  35.224  0.00  0.00    -0.355 N 
ATOM     14  C   UNK d   0       3.176   3.793  33.632  0.00  0.00    -0.022 A 
ATOM     15  C   UNK d   0       2.199   2.387  35.034  0.00  0.00     0.042 A 
ATOM     16  H   UNK d   0       0.761   3.793  35.926  0.00  0.00     0.166 HD
ATOM     17  C   UNK d   0       1.974   1.140  35.651  0.00  0.00     0.062 C 
ATOM     18  C   UNK d   0       3.195   2.484  34.043  0.00  0.00    -0.013 A 
ATOM     19  C   UNK d   0       1.792   0.856  36.980  0.00  0.00     0.067 A 
ATOM     20  N   UNK d   0       1.603   1.893  37.800  0.00  0.00    -0.248 NA
ATOM     21  C   UNK d   0       1.761  -0.346  37.797  0.00  0.00    -0.011 A 
ATOM     22  C   UNK d   0       1.453   1.457  39.094  0.00  0.00     0.066 A 
ATOM     23  C   UNK d   0       1.211   2.433  40.049  0.00  0.00     0.062 C 
ATOM     24  C   UNK d   0       1.566   0.013  39.033  0.00  0.00    -0.020 A 
ATOM     25  C   UNK d   0       1.010   3.807  39.844  0.00  0.00     0.041 A 
ATOM     26  N   UNK d   0       1.603   4.677  39.017  0.00  0.00    -0.355 N 
ATOM     27  C   UNK d   0       0.009   4.462  40.594  0.00  0.00    -0.022 A 
ATOM     28  C   UNK d   0       1.010   5.865  39.211  0.00  0.00     0.042 A 
ATOM     29  H   UNK d   0       2.450   4.460  38.321  0.00  0.00     0.166 HD
ATOM     30  C   UNK d   0       1.230   7.115  38.611  0.00  0.00     0.062 C 
ATOM     31  C   UNK d   0       0.002   5.765  40.199  0.00  0.00    -0.013 A 
ATOM     32  C   UNK d   0       1.498   7.389  37.279  0.00  0.00     0.066 A 
BRANCH   8  33
ATOM     33  C   UNK d   0       2.132   9.144  34.112  0.00  0.00     0.151 C 
BRANCH  33  34
ATOM     34  C   UNK d   0       2.696   8.440  32.946  0.00  0.00     0.143 C 
ATOM     35  O   UNK d   0       1.976   8.109  31.993  0.00  0.00    -0.650 OA
BRANCH  34  36
ATOM     36  O   UNK d   0       4.039   8.146  32.920  0.00  0.00    -0.776 OA
ATOM     37  H   UNK d   0       4.582   8.047  33.789  0.00  0.00     0.167 HD
ENDBRANCH  34  36
ENDBRANCH  33  34
ENDBRANCH   8  33
BRANCH  31  38
ATOM     38  C   UNK d   0      -0.915   6.848  40.718  0.00  0.00     0.151 C 
BRANCH  38  39
ATOM     39  C   UNK d   0      -0.230   7.809  41.556  0.00  0.00     0.143 C 
ATOM     40  O   UNK d   0       0.946   7.651  41.926  0.00  0.00    -0.650 OA
BRANCH  39  41
ATOM     41  O   UNK d   0      -0.902   8.959  41.971  0.00  0.00    -0.776 OA
ATOM     42  H   UNK d   0      -0.794   9.793  41.386  0.00  0.00     0.167 HD
ENDBRANCH  39  41
ENDBRANCH  38  39
ENDBRANCH  31  38
BRANCH  27  43
ATOM     43  C   UNK d   0      -0.916   3.908  41.648  0.00  0.00     0.052 C 
BRANCH  43  44
ATOM     44  C   UNK d   0      -1.315   4.918  42.674  0.00  0.00     0.115 C 
BRANCH  44  45
ATOM     45  C   UNK d   0      -1.973   4.167  43.775  0.00  0.00     0.139 C 
ATOM     46  O   UNK d   0      -3.198   4.360  43.974  0.00  0.00    -0.650 OA
BRANCH  45  47
ATOM     47  O   UNK d   0      -1.298   3.271  44.576  0.00  0.00    -0.776 OA
ATOM     48  H   UNK d   0      -1.739   2.419  44.959  0.00  0.00     0.167 HD
ENDBRANCH  45  47
ENDBRANCH  44  45
ENDBRANCH  43  44
ENDBRANCH  27  43
BRANCH  24  49
ATOM     49  C   UNK d   0       1.430  -0.890  40.188  0.00  0.00     0.052 C 
BRANCH  49  50
ATOM     50  C   UNK d   0       2.667  -0.835  41.047  0.00  0.00     0.115 C 
BRANCH  50  51
ATOM     51  C   UNK d   0       3.451  -2.057  41.163  0.00  0.00     0.139 C 
ATOM     52  O   UNK d   0       2.983  -3.189  40.896  0.00  0.00    -0.650 OA
BRANCH  51  53
ATOM     53  O   UNK d   0       4.770  -1.988  41.587  0.00  0.00    -0.776 OA
ATOM     54  H   UNK d   0       5.187  -1.081  41.698  0.00  0.00     0.167 HD
ENDBRANCH  51  53
ENDBRANCH  50  51
ENDBRANCH  49  50
ENDBRANCH  24  49
BRANCH  21  55
ATOM     55  C   UNK d   0       1.925  -1.727  37.256  0.00  0.00     0.151 C 
BRANCH  55  56
ATOM     56  C   UNK d   0       3.308  -2.212  37.390  0.00  0.00     0.143 C 
ATOM     57  O   UNK d   0       4.291  -1.570  36.971  0.00  0.00    -0.650 OA
BRANCH  56  58
ATOM     58  O   UNK d   0       3.507  -3.442  38.014  0.00  0.00    -0.776 OA
ATOM     59  H   UNK d   0       3.793  -3.385  39.008  0.00  0.00     0.167 HD
ENDBRANCH  56  58
ENDBRANCH  55  56
ENDBRANCH  21  55
BRANCH  18  60
ATOM     60  C   UNK d   0       4.121   1.422  33.505  0.00  0.00     0.151 C 
BRANCH  60  61
ATOM     61  C   UNK d   0       5.288   1.412  34.399  0.00  0.00     0.143 C 
ATOM     62  O   UNK d   0       5.288   1.241  35.619  0.00  0.00    -0.650 OA
BRANCH  61  63
ATOM     63  O   UNK d   0       6.536   1.625  33.764  0.00  0.00    -0.776 OA
ATOM     64  H   UNK d   0       7.040   0.864  33.345  0.00  0.00     0.167 HD
ENDBRANCH  61  63
ENDBRANCH  60  61
ENDBRANCH  18  60
BRANCH  14  65
ATOM     65  C   UNK d   0       4.033   4.283  32.499  0.00  0.00     0.052 C 
BRANCH  65  66
ATOM     66  C   UNK d   0       5.342   4.826  32.952  0.00  0.00     0.115 C 
BRANCH  66  67
ATOM     67  C   UNK d   0       6.193   5.504  32.016  0.00  0.00     0.139 C 
ATOM     68  O   UNK d   0       6.823   4.804  31.140  0.00  0.00    -0.650 OA
BRANCH  67  69
ATOM     69  O   UNK d   0       6.440   6.874  31.924  0.00  0.00    -0.776 OA
ATOM     70  H   UNK d   0       5.631   7.487  32.099  0.00  0.00     0.167 HD
ENDBRANCH  67  69
ENDBRANCH  66  67
ENDBRANCH  65  66
ENDBRANCH  14  65
ENDBRANCH   6   7
ENDBRANCH   5   6
ENDBRANCH   2   5
TORSDOF 28
ENDMDL
MODEL 14
REMARK VINA RESULT:      -8.0      1.831      9.544
REMARK  28 active torsions:
REMARK  status: ('A' for Active; 'I' for Inactive)
REMARK    1  A    between atoms: C_2  and  O_3 
REMARK    2  A    between atoms: C_2  and  C_4 
REMARK    3  A    between atoms: C_4  and  C_5 
REMARK    4  A    between atoms: C_5  and  C_6 
REMARK    5  A    between atoms: C_7  and  C_8 
REMARK    6  A    between atoms: C_8  and  C_9 
REMARK    7  A    between atoms: C_9  and  O_11 
REMARK    8  A    between atoms: C_28  and  C_29 
REMARK    9  A    between atoms: C_29  and  C_30 
REMARK   10  A    between atoms: C_30  and  O_32 
REMARK   11  A    between atoms: C_33  and  C_34 
REMARK   12  A    between atoms: C_34  and  C_35 
REMARK   13  A    between atoms: C_35  and  C_36 
REMARK   14  A    between atoms: C_36  and  O_38 
REMARK   15  A    between atoms: C_39  and  C_40 
REMARK   16  A    between atoms: C_40  and  C_41 
REMARK   17  A    between atoms: C_41  and  C_42 
REMARK   18  A    between atoms: C_42  and  O_44 
REMARK   19  A    between atoms: C_45  and  C_46 
REMARK   20  A    between atoms: C_46  and  C_47 
REMARK   21  A    between atoms: C_47  and  O_49 
REMARK   22  A    between atoms: C_50  and  C_51 
REMARK   23  A    between atoms: C_51  and  C_52 
REMARK   24  A    between atoms: C_52  and  O_54 
REMARK   25  A    between atoms: C_55  and  C_56 
REMARK   26  A    between atoms: C_56  and  C_57 
REMARK   27  A    between atoms: C_57  and  C_58 
REMARK   28  A    between atoms: C_58  and  O_60 
ROOT
ATOM      1  O   UNK d   0      32.723   3.813  39.328  0.00  0.00    -0.650 OA
ATOM      2  C   UNK d   0      31.565   3.454  39.639  0.00  0.00     0.139 C 
ENDROOT
BRANCH   2   3
ATOM      3  O   UNK d   0      30.791   4.278  40.419  0.00  0.00    -0.776 OA
ATOM      4  H   UNK d   0      31.102   4.571  41.348  0.00  0.00     0.167 HD
ENDBRANCH   2   3
BRANCH   2   5
ATOM      5  C   UNK d   0      31.037   2.143  39.167  0.00  0.00     0.115 C 
BRANCH   5   6
ATOM      6  C   UNK d   0      32.160   1.289  38.645  0.00  0.00     0.052 C 
BRANCH   6   7
ATOM      7  C   UNK d   0      32.291  -0.018  39.389  0.00  0.00    -0.020 A 
ATOM      8  C   UNK d   0      31.965  -1.213  38.966  0.00  0.00    -0.011 A 
ATOM      9  C   UNK d   0      32.263  -2.157  40.030  0.00  0.00     0.067 A 
ATOM     10  C   UNK d   0      32.171  -3.547  40.206  0.00  0.00     0.062 C 
ATOM     11  N   UNK d   0      32.761  -1.450  41.066  0.00  0.00    -0.248 NA
ATOM     12  C   UNK d   0      32.770  -4.316  41.210  0.00  0.00     0.041 A 
ATOM     13  N   UNK d   0      32.898  -4.101  42.533  0.00  0.00    -0.355 N 
ATOM     14  C   UNK d   0      33.423  -5.510  40.854  0.00  0.00    -0.022 A 
ATOM     15  C   UNK d   0      33.621  -5.125  43.025  0.00  0.00     0.042 A 
ATOM     16  H   UNK d   0      32.468  -3.254  43.111  0.00  0.00     0.166 HD
ATOM     17  C   UNK d   0      34.043  -5.395  44.342  0.00  0.00     0.062 C 
ATOM     18  C   UNK d   0      33.969  -6.028  42.002  0.00  0.00    -0.013 A 
ATOM     19  C   UNK d   0      34.591  -4.541  45.265  0.00  0.00     0.067 A 
ATOM     20  N   UNK d   0      34.552  -3.237  44.979  0.00  0.00    -0.248 NA
ATOM     21  C   UNK d   0      35.259  -4.679  46.548  0.00  0.00    -0.011 A 
ATOM     22  C   UNK d   0      35.147  -2.512  45.982  0.00  0.00     0.066 A 
ATOM     23  C   UNK d   0      35.143  -1.133  45.832  0.00  0.00     0.062 C 
ATOM     24  C   UNK d   0      35.586  -3.488  46.961  0.00  0.00    -0.020 A 
ATOM     25  C   UNK d   0      34.524  -0.380  44.822  0.00  0.00     0.041 A 
ATOM     26  N   UNK d   0      34.410  -0.585  43.505  0.00  0.00    -0.355 N 
ATOM     27  C   UNK d   0      33.865   0.817  45.181  0.00  0.00    -0.022 A 
ATOM     28  C   UNK d   0      33.696   0.439  43.011  0.00  0.00     0.042 A 
ATOM     29  H   UNK d   0      34.851  -1.432  42.924  0.00  0.00     0.166 HD
ATOM     30  C   UNK d   0      33.277   0.725  41.702  0.00  0.00     0.062 C 
ATOM     31  C   UNK d   0      33.338   1.341  44.041  0.00  0.00    -0.013 A 
ATOM     32  C   UNK d   0      32.804  -0.157  40.743  0.00  0.00     0.066 A 
BRANCH   8  33
ATOM     33  C   UNK d   0      31.392  -1.562  37.653  0.00  0.00     0.151 C 
BRANCH  33  34
ATOM     34  C   UNK d   0      31.000  -2.980  37.560  0.00  0.00     0.143 C 
ATOM     35  O   UNK d   0      29.875  -3.354  37.920  0.00  0.00    -0.650 OA
BRANCH  34  36
ATOM     36  O   UNK d   0      31.899  -3.898  37.069  0.00  0.00    -0.776 OA
ATOM     37  H   UNK d   0      32.902  -3.680  36.998  0.00  0.00     0.167 HD
ENDBRANCH  34  36
ENDBRANCH  33  34
ENDBRANCH   8  33
BRANCH  31  38
ATOM     38  C   UNK d   0      32.531   2.614  43.935  0.00  0.00     0.151 C 
BRANCH  38  39
ATOM     39  C   UNK d   0      31.117   2.368  43.750  0.00  0.00     0.143 C 
ATOM     40  O   UNK d   0      30.571   1.313  44.117  0.00  0.00    -0.650 OA
BRANCH  39  41
ATOM     41  O   UNK d   0      30.326   3.341  43.140  0.00  0.00    -0.776 OA
ATOM     42  H   UNK d   0      30.817   4.104  42.664  0.00  0.00     0.167 HD
ENDBRANCH  39  41
ENDBRANCH  38  39
ENDBRANCH  31  38
BRANCH  27  43
ATOM     43  C   UNK d   0      33.725   1.465  46.536  0.00  0.00     0.052 C 
BRANCH  43  44
ATOM     44  C   UNK d   0      35.018   1.571  47.277  0.00  0.00     0.115 C 
BRANCH  44  45
ATOM     45  C   UNK d   0      35.566   2.921  46.983  0.00  0.00     0.139 C 
ATOM     46  O   UNK d   0      36.400   3.409  47.785  0.00  0.00    -0.650 OA
BRANCH  45  47
ATOM     47  O   UNK d   0      35.201   3.650  45.871  0.00  0.00    -0.776 OA
ATOM     48  H   UNK d   0      34.365   4.256  45.848  0.00  0.00     0.167 HD
ENDBRANCH  45  47
ENDBRANCH  44  45
ENDBRANCH  43  44
ENDBRANCH  27  43
BRANCH  24  49
ATOM     49  C   UNK d   0      36.248  -3.162  48.235  0.00  0.00     0.052 C 
BRANCH  49  50
ATOM     50  C   UNK d   0      37.716  -3.494  48.164  0.00  0.00     0.115 C 
BRANCH  50  51
ATOM     51  C   UNK d   0      38.528  -2.722  47.234  0.00  0.00     0.139 C 
ATOM     52  O   UNK d   0      39.368  -3.251  46.468  0.00  0.00    -0.650 OA
BRANCH  51  53
ATOM     53  O   UNK d   0      38.385  -1.344  47.179  0.00  0.00    -0.776 OA
ATOM     54  H   UNK d   0      37.925  -0.883  47.945  0.00  0.00     0.167 HD
ENDBRANCH  51  53
ENDBRANCH  50  51
ENDBRANCH  49  50
ENDBRANCH  24  49
BRANCH  21  55
ATOM     55  C   UNK d   0      35.497  -5.985  47.230  0.00  0.00     0.151 C 
BRANCH  55  56
ATOM     56  C   UNK d   0      34.279  -6.502  47.873  0.00  0.00     0.143 C 
ATOM     57  O   UNK d   0      33.793  -5.996  48.904  0.00  0.00    -0.650 OA
BRANCH  56  58
ATOM     58  O   UNK d   0      33.655  -7.603  47.290  0.00  0.00    -0.776 OA
ATOM     59  H   UNK d   0      32.627  -7.641  47.417  0.00  0.00     0.167 HD
ENDBRANCH  56  58
ENDBRANCH  55  56
ENDBRANCH  21  55
BRANCH  18  60
ATOM     60  C   UNK d   0      34.769  -7.305  42.078  0.00  0.00     0.151 C 
BRANCH  60  61
ATOM     61  C   UNK d   0      33.806  -8.365  42.416  0.00  0.00     0.143 C 
ATOM     62  O   UNK d   0      33.251  -8.545  43.500  0.00  0.00    -0.650 OA
BRANCH  61  63
ATOM     63  O   UNK d   0      33.503  -9.261  41.363  0.00  0.00    -0.776 OA
ATOM     64  H   UNK d   0      34.190  -9.906  41.017  0.00  0.00     0.167 HD
ENDBRANCH  61  63
ENDBRANCH  60  61
ENDBRANCH  18  60
BRANCH  14  65
ATOM     65  C   UNK d   0      33.484  -6.241  39.543  0.00  0.00     0.052 C 
BRANCH  65  66
ATOM     66  C   UNK d   0      34.838  -6.777  39.239  0.00  0.00     0.115 C 
BRANCH  66  67
ATOM     67  C   UNK d   0      35.212  -7.036  37.877  0.00  0.00     0.139 C 
ATOM     68  O   UNK d   0      34.312  -7.467  37.066  0.00  0.00    -0.650 OA
BRANCH  67  69
ATOM     69  O   UNK d   0      36.467  -6.879  37.292  0.00  0.00    -0.776 OA
ATOM     70  H   UNK d   0      36.733  -7.596  36.602  0.00  0.00     0.167 HD
ENDBRANCH  67  69
ENDBRANCH  66  67
ENDBRANCH  65  66
ENDBRANCH  14  65
ENDBRANCH   6   7
ENDBRANCH   5   6
ENDBRANCH   2   5
TORSDOF 28
ENDMDL
MODEL 15
REMARK VINA RESULT:      -7.8      1.838      7.722
REMARK  28 active torsions:
REMARK  status: ('A' for Active; 'I' for Inactive)
REMARK    1  A    between atoms: C_2  and  O_3 
REMARK    2  A    between atoms: C_2  and  C_4 
REMARK    3  A    between atoms: C_4  and  C_5 
REMARK    4  A    between atoms: C_5  and  C_6 
REMARK    5  A    between atoms: C_7  and  C_8 
REMARK    6  A    between atoms: C_8  and  C_9 
REMARK    7  A    between atoms: C_9  and  O_11 
REMARK    8  A    between atoms: C_28  and  C_29 
REMARK    9  A    between atoms: C_29  and  C_30 
REMARK   10  A    between atoms: C_30  and  O_32 
REMARK   11  A    between atoms: C_33  and  C_34 
REMARK   12  A    between atoms: C_34  and  C_35 
REMARK   13  A    between atoms: C_35  and  C_36 
REMARK   14  A    between atoms: C_36  and  O_38 
REMARK   15  A    between atoms: C_39  and  C_40 
REMARK   16  A    between atoms: C_40  and  C_41 
REMARK   17  A    between atoms: C_41  and  C_42 
REMARK   18  A    between atoms: C_42  and  O_44 
REMARK   19  A    between atoms: C_45  and  C_46 
REMARK   20  A    between atoms: C_46  and  C_47 
REMARK   21  A    between atoms: C_47  and  O_49 
REMARK   22  A    between atoms: C_50  and  C_51 
REMARK   23  A    between atoms: C_51  and  C_52 
REMARK   24  A    between atoms: C_52  and  O_54 
REMARK   25  A    between atoms: C_55  and  C_56 
REMARK   26  A    between atoms: C_56  and  C_57 
REMARK   27  A    between atoms: C_57  and  C_58 
REMARK   28  A    between atoms: C_58  and  O_60 
ROOT
ATOM      1  O   UNK d   0      31.837   5.250  42.653  0.00  0.00    -0.650 OA
ATOM      2  C   UNK d   0      31.697   4.494  41.666  0.00  0.00     0.139 C 
ENDROOT
BRANCH   2   3
ATOM      3  O   UNK d   0      31.114   4.983  40.522  0.00  0.00    -0.776 OA
ATOM      4  H   UNK d   0      31.584   5.686  39.949  0.00  0.00     0.167 HD
ENDBRANCH   2   3
BRANCH   2   5
ATOM      5  C   UNK d   0      32.160   3.079  41.735  0.00  0.00     0.115 C 
BRANCH   5   6
ATOM      6  C   UNK d   0      31.699   2.446  43.020  0.00  0.00     0.052 C 
BRANCH   6   7
ATOM      7  C   UNK d   0      32.662   1.401  43.531  0.00  0.00    -0.020 A 
ATOM      8  C   UNK d   0      33.578   1.544  44.454  0.00  0.00    -0.011 A 
ATOM      9  C   UNK d   0      34.264   0.271  44.601  0.00  0.00     0.067 A 
ATOM     10  C   UNK d   0      35.295  -0.237  45.406  0.00  0.00     0.062 C 
ATOM     11  N   UNK d   0      33.704  -0.589  43.724  0.00  0.00    -0.248 NA
ATOM     12  C   UNK d   0      35.636  -1.580  45.600  0.00  0.00     0.041 A 
ATOM     13  N   UNK d   0      35.737  -2.603  44.730  0.00  0.00    -0.355 N 
ATOM     14  C   UNK d   0      35.880  -2.039  46.907  0.00  0.00    -0.022 A 
ATOM     15  C   UNK d   0      36.031  -3.701  45.452  0.00  0.00     0.042 A 
ATOM     16  H   UNK d   0      35.623  -2.546  43.625  0.00  0.00     0.166 HD
ATOM     17  C   UNK d   0      36.245  -5.032  45.044  0.00  0.00     0.062 C 
ATOM     18  C   UNK d   0      36.128  -3.387  46.821  0.00  0.00    -0.013 A 
ATOM     19  C   UNK d   0      35.525  -5.788  44.155  0.00  0.00     0.067 A 
ATOM     20  N   UNK d   0      34.614  -5.149  43.415  0.00  0.00    -0.248 NA
ATOM     21  C   UNK d   0      35.468  -7.192  43.782  0.00  0.00    -0.011 A 
ATOM     22  C   UNK d   0      33.966  -6.032  42.588  0.00  0.00     0.066 A 
ATOM     23  C   UNK d   0      33.016  -5.493  41.733  0.00  0.00     0.062 C 
ATOM     24  C   UNK d   0      34.552  -7.329  42.868  0.00  0.00    -0.020 A 
ATOM     25  C   UNK d   0      32.698  -4.139  41.545  0.00  0.00     0.041 A 
ATOM     26  N   UNK d   0      32.582  -3.126  42.412  0.00  0.00    -0.355 N 
ATOM     27  C   UNK d   0      32.458  -3.678  40.232  0.00  0.00    -0.022 A 
ATOM     28  C   UNK d   0      32.281  -2.032  41.695  0.00  0.00     0.042 A 
ATOM     29  H   UNK d   0      32.687  -3.186  43.523  0.00  0.00     0.166 HD
ATOM     30  C   UNK d   0      32.056  -0.703  42.088  0.00  0.00     0.062 C 
ATOM     31  C   UNK d   0      32.194  -2.346  40.318  0.00  0.00    -0.013 A 
ATOM     32  C   UNK d   0      32.734   0.030  43.050  0.00  0.00     0.066 A 
BRANCH   8  33
ATOM     33  C   UNK d   0      33.883   2.768  45.217  0.00  0.00     0.151 C 
BRANCH  33  34
ATOM     34  C   UNK d   0      34.468   2.485  46.540  0.00  0.00     0.143 C 
ATOM     35  O   UNK d   0      35.571   2.949  46.860  0.00  0.00    -0.650 OA
BRANCH  34  36
ATOM     36  O   UNK d   0      33.778   1.694  47.429  0.00  0.00    -0.776 OA
ATOM     37  H   UNK d   0      33.353   2.089  48.279  0.00  0.00     0.167 HD
ENDBRANCH  34  36
ENDBRANCH  33  34
ENDBRANCH   8  33
BRANCH  31  38
ATOM     38  C   UNK d   0      31.891  -1.422  39.162  0.00  0.00     0.151 C 
BRANCH  38  39
ATOM     39  C   UNK d   0      32.430  -0.091  39.350  0.00  0.00     0.143 C 
ATOM     40  O   UNK d   0      33.624   0.109  39.634  0.00  0.00    -0.650 OA
BRANCH  39  41
ATOM     41  O   UNK d   0      31.592   1.015  39.210  0.00  0.00    -0.776 OA
ATOM     42  H   UNK d   0      31.651   1.530  38.326  0.00  0.00     0.167 HD
ENDBRANCH  39  41
ENDBRANCH  38  39
ENDBRANCH  31  38
BRANCH  27  43
ATOM     43  C   UNK d   0      32.468  -4.442  38.932  0.00  0.00     0.052 C 
BRANCH  43  44
ATOM     44  C   UNK d   0      31.204  -4.291  38.148  0.00  0.00     0.115 C 
BRANCH  44  45
ATOM     45  C   UNK d   0      31.505  -4.748  36.767  0.00  0.00     0.139 C 
ATOM     46  O   UNK d   0      32.703  -4.971  36.464  0.00  0.00    -0.650 OA
BRANCH  45  47
ATOM     47  O   UNK d   0      30.527  -4.942  35.814  0.00  0.00    -0.776 OA
ATOM     48  H   UNK d   0      29.613  -4.462  35.844  0.00  0.00     0.167 HD
ENDBRANCH  45  47
ENDBRANCH  44  45
ENDBRANCH  43  44
ENDBRANCH  27  43
BRANCH  24  49
ATOM     49  C   UNK d   0      34.190  -8.581  42.181  0.00  0.00     0.052 C 
BRANCH  49  50
ATOM     50  C   UNK d   0      32.882  -9.110  42.710  0.00  0.00     0.115 C 
BRANCH  50  51
ATOM     51  C   UNK d   0      32.897 -10.432  43.321  0.00  0.00     0.139 C 
ATOM     52  O   UNK d   0      31.894 -11.185  43.331  0.00  0.00    -0.650 OA
BRANCH  51  53
ATOM     53  O   UNK d   0      34.057 -10.897  43.923  0.00  0.00    -0.776 OA
ATOM     54  H   UNK d   0      34.911 -10.394  43.760  0.00  0.00     0.167 HD
ENDBRANCH  51  53
ENDBRANCH  50  51
ENDBRANCH  49  50
ENDBRANCH  24  49
BRANCH  21  55
ATOM     55  C   UNK d   0      36.340  -8.249  44.375  0.00  0.00     0.151 C 
BRANCH  55  56
ATOM     56  C   UNK d   0      35.983  -8.537  45.773  0.00  0.00     0.143 C 
ATOM     57  O   UNK d   0      36.594  -8.043  46.741  0.00  0.00    -0.650 OA
BRANCH  56  58
ATOM     58  O   UNK d   0      34.914  -9.401  46.005  0.00  0.00    -0.776 OA
ATOM     59  H   UNK d   0      34.835 -10.187  45.335  0.00  0.00     0.167 HD
ENDBRANCH  56  58
ENDBRANCH  55  56
ENDBRANCH  21  55
BRANCH  18  60
ATOM     60  C   UNK d   0      36.431  -4.286  47.994  0.00  0.00     0.151 C 
BRANCH  60  61
ATOM     61  C   UNK d   0      35.169  -4.968  48.318  0.00  0.00     0.143 C 
ATOM     62  O   UNK d   0      34.069  -4.445  48.501  0.00  0.00    -0.650 OA
BRANCH  61  63
ATOM     63  O   UNK d   0      35.255  -6.377  48.424  0.00  0.00    -0.776 OA
ATOM     64  H   UNK d   0      35.892  -6.810  49.069  0.00  0.00     0.167 HD
ENDBRANCH  61  63
ENDBRANCH  60  61
ENDBRANCH  18  60
BRANCH  14  65
ATOM     65  C   UNK d   0      35.992  -1.291  48.204  0.00  0.00     0.052 C 
BRANCH  65  66
ATOM     66  C   UNK d   0      37.215  -0.448  48.286  0.00  0.00     0.115 C 
BRANCH  66  67
ATOM     67  C   UNK d   0      37.119   0.900  48.772  0.00  0.00     0.139 C 
ATOM     68  O   UNK d   0      38.133   1.678  48.627  0.00  0.00    -0.650 OA
BRANCH  67  69
ATOM     69  O   UNK d   0      36.034   1.503  49.407  0.00  0.00    -0.776 OA
ATOM     70  H   UNK d   0      35.894   2.503  49.202  0.00  0.00     0.167 HD
ENDBRANCH  67  69
ENDBRANCH  66  67
ENDBRANCH  65  66
ENDBRANCH  14  65
ENDBRANCH   6   7
ENDBRANCH   5   6
ENDBRANCH   2   5
TORSDOF 28
ENDMDL
MODEL 16
REMARK VINA RESULT:      -7.7     30.431     33.756
REMARK  28 active torsions:
REMARK  status: ('A' for Active; 'I' for Inactive)
REMARK    1  A    between atoms: C_2  and  O_3 
REMARK    2  A    between atoms: C_2  and  C_4 
REMARK    3  A    between atoms: C_4  and  C_5 
REMARK    4  A    between atoms: C_5  and  C_6 
REMARK    5  A    between atoms: C_7  and  C_8 
REMARK    6  A    between atoms: C_8  and  C_9 
REMARK    7  A    between atoms: C_9  and  O_11 
REMARK    8  A    between atoms: C_28  and  C_29 
REMARK    9  A    between atoms: C_29  and  C_30 
REMARK   10  A    between atoms: C_30  and  O_32 
REMARK   11  A    between atoms: C_33  and  C_34 
REMARK   12  A    between atoms: C_34  and  C_35 
REMARK   13  A    between atoms: C_35  and  C_36 
REMARK   14  A    between atoms: C_36  and  O_38 
REMARK   15  A    between atoms: C_39  and  C_40 
REMARK   16  A    between atoms: C_40  and  C_41 
REMARK   17  A    between atoms: C_41  and  C_42 
REMARK   18  A    between atoms: C_42  and  O_44 
REMARK   19  A    between atoms: C_45  and  C_46 
REMARK   20  A    between atoms: C_46  and  C_47 
REMARK   21  A    between atoms: C_47  and  O_49 
REMARK   22  A    between atoms: C_50  and  C_51 
REMARK   23  A    between atoms: C_51  and  C_52 
REMARK   24  A    between atoms: C_52  and  O_54 
REMARK   25  A    between atoms: C_55  and  C_56 
REMARK   26  A    between atoms: C_56  and  C_57 
REMARK   27  A    between atoms: C_57  and  C_58 
REMARK   28  A    between atoms: C_58  and  O_60 
ROOT
ATOM      1  O   UNK d   0       2.741  11.902  40.807  0.00  0.00    -0.650 OA
ATOM      2  C   UNK d   0       2.010  11.261  40.019  0.00  0.00     0.139 C 
ENDROOT
BRANCH   2   3
ATOM      3  O   UNK d   0       0.697  11.032  40.353  0.00  0.00    -0.776 OA
ATOM      4  H   UNK d   0       0.033  10.672  39.664  0.00  0.00     0.167 HD
ENDBRANCH   2   3
BRANCH   2   5
ATOM      5  C   UNK d   0       2.564  10.751  38.732  0.00  0.00     0.115 C 
BRANCH   5   6
ATOM      6  C   UNK d   0       1.455  10.554  37.734  0.00  0.00     0.052 C 
BRANCH   6   7
ATOM      7  C   UNK d   0       1.469   9.177  37.115  0.00  0.00    -0.020 A 
ATOM      8  C   UNK d   0       1.493   8.874  35.842  0.00  0.00    -0.011 A 
ATOM      9  C   UNK d   0       1.488   7.424  35.730  0.00  0.00     0.067 A 
ATOM     10  C   UNK d   0       1.525   6.490  34.683  0.00  0.00     0.062 C 
ATOM     11  N   UNK d   0       1.454   6.926  36.984  0.00  0.00    -0.248 NA
ATOM     12  C   UNK d   0       1.795   5.121  34.780  0.00  0.00     0.041 A 
ATOM     13  N   UNK d   0       1.380   4.195  35.665  0.00  0.00    -0.355 N 
ATOM     14  C   UNK d   0       2.689   4.537  33.863  0.00  0.00    -0.022 A 
ATOM     15  C   UNK d   0       1.994   3.042  35.339  0.00  0.00     0.042 A 
ATOM     16  H   UNK d   0       0.653   4.349  36.492  0.00  0.00     0.166 HD
ATOM     17  C   UNK d   0       1.916   1.766  35.932  0.00  0.00     0.062 C 
ATOM     18  C   UNK d   0       2.823   3.217  34.214  0.00  0.00    -0.013 A 
ATOM     19  C   UNK d   0       1.950   1.430  37.262  0.00  0.00     0.067 A 
ATOM     20  N   UNK d   0       1.847   2.429  38.141  0.00  0.00    -0.248 NA
ATOM     21  C   UNK d   0       2.092   0.201  38.025  0.00  0.00    -0.011 A 
ATOM     22  C   UNK d   0       1.912   1.943  39.424  0.00  0.00     0.066 A 
ATOM     23  C   UNK d   0       1.779   2.875  40.443  0.00  0.00     0.062 C 
ATOM     24  C   UNK d   0       2.073   0.509  39.290  0.00  0.00    -0.020 A 
ATOM     25  C   UNK d   0       1.495   4.244  40.326  0.00  0.00     0.041 A 
ATOM     26  N   UNK d   0       1.919   5.167  39.455  0.00  0.00    -0.355 N 
ATOM     27  C   UNK d   0       0.594   4.827  41.244  0.00  0.00    -0.022 A 
ATOM     28  C   UNK d   0       1.316   6.320  39.783  0.00  0.00     0.042 A 
ATOM     29  H   UNK d   0       2.658   5.013  38.631  0.00  0.00     0.166 HD
ATOM     30  C   UNK d   0       1.391   7.598  39.208  0.00  0.00     0.062 C 
ATOM     31  C   UNK d   0       0.474   6.141  40.907  0.00  0.00    -0.013 A 
ATOM     32  C   UNK d   0       1.442   7.928  37.863  0.00  0.00     0.066 A 
BRANCH   8  33
ATOM     33  C   UNK d   0       1.515   9.816  34.708  0.00  0.00     0.151 C 
BRANCH  33  34
ATOM     34  C   UNK d   0       2.407   9.377  33.620  0.00  0.00     0.143 C 
ATOM     35  O   UNK d   0       3.521   8.894  33.865  0.00  0.00    -0.650 OA
BRANCH  34  36
ATOM     36  O   UNK d   0       1.994   9.510  32.314  0.00  0.00    -0.776 OA
ATOM     37  H   UNK d   0       2.637   9.840  31.581  0.00  0.00     0.167 HD
ENDBRANCH  34  36
ENDBRANCH  33  34
ENDBRANCH   8  33
BRANCH  31  38
ATOM     38  C   UNK d   0      -0.396   7.163  41.601  0.00  0.00     0.151 C 
BRANCH  38  39
ATOM     39  C   UNK d   0       0.370   8.212  42.238  0.00  0.00     0.143 C 
ATOM     40  O   UNK d   0      -0.126   9.314  42.532  0.00  0.00    -0.650 OA
BRANCH  39  41
ATOM     41  O   UNK d   0       1.714   7.994  42.541  0.00  0.00    -0.776 OA
ATOM     42  H   UNK d   0       2.335   7.780  41.755  0.00  0.00     0.167 HD
ENDBRANCH  39  41
ENDBRANCH  38  39
ENDBRANCH  31  38
BRANCH  27  43
ATOM     43  C   UNK d   0      -0.137   4.196  42.402  0.00  0.00     0.052 C 
BRANCH  43  44
ATOM     44  C   UNK d   0      -1.607   4.062  42.170  0.00  0.00     0.115 C 
BRANCH  44  45
ATOM     45  C   UNK d   0      -2.230   3.854  43.503  0.00  0.00     0.139 C 
ATOM     46  O   UNK d   0      -2.893   4.798  44.000  0.00  0.00    -0.650 OA
BRANCH  45  47
ATOM     47  O   UNK d   0      -2.113   2.675  44.207  0.00  0.00    -0.776 OA
ATOM     48  H   UNK d   0      -1.218   2.344  44.601  0.00  0.00     0.167 HD
ENDBRANCH  45  47
ENDBRANCH  44  45
ENDBRANCH  43  44
ENDBRANCH  27  43
BRANCH  24  49
ATOM     49  C   UNK d   0       2.150  -0.438  40.415  0.00  0.00     0.052 C 
BRANCH  49  50
ATOM     50  C   UNK d   0       0.826  -1.131  40.609  0.00  0.00     0.115 C 
BRANCH  50  51
ATOM     51  C   UNK d   0      -0.370  -0.300  40.574  0.00  0.00     0.139 C 
ATOM     52  O   UNK d   0      -0.616   0.570  41.443  0.00  0.00    -0.650 OA
BRANCH  51  53
ATOM     53  O   UNK d   0      -1.289  -0.463  39.549  0.00  0.00    -0.776 OA
ATOM     54  H   UNK d   0      -2.155  -0.930  39.756  0.00  0.00     0.167 HD
ENDBRANCH  51  53
ENDBRANCH  50  51
ENDBRANCH  49  50
ENDBRANCH  24  49
BRANCH  21  55
ATOM     55  C   UNK d   0       2.227  -1.153  37.411  0.00  0.00     0.151 C 
BRANCH  55  56
ATOM     56  C   UNK d   0       0.996  -1.572  36.724  0.00  0.00     0.143 C 
ATOM     57  O   UNK d   0      -0.141  -1.235  37.110  0.00  0.00    -0.650 OA
BRANCH  56  58
ATOM     58  O   UNK d   0       1.125  -2.381  35.596  0.00  0.00    -0.776 OA
ATOM     59  H   UNK d   0       0.876  -3.376  35.741  0.00  0.00     0.167 HD
ENDBRANCH  56  58
ENDBRANCH  55  56
ENDBRANCH  21  55
BRANCH  18  60
ATOM     60  C   UNK d   0       3.698   2.217  33.500  0.00  0.00     0.151 C 
BRANCH  60  61
ATOM     61  C   UNK d   0       4.978   2.209  34.226  0.00  0.00     0.143 C 
ATOM     62  O   UNK d   0       5.296   1.474  35.161  0.00  0.00    -0.650 OA
BRANCH  61  63
ATOM     63  O   UNK d   0       5.928   3.160  33.782  0.00  0.00    -0.776 OA
ATOM     64  H   UNK d   0       5.670   3.892  33.145  0.00  0.00     0.167 HD
ENDBRANCH  61  63
ENDBRANCH  60  61
ENDBRANCH  18  60
BRANCH  14  65
ATOM     65  C   UNK d   0       3.343   5.104  32.635  0.00  0.00     0.052 C 
BRANCH  65  66
ATOM     66  C   UNK d   0       2.391   5.830  31.752  0.00  0.00     0.115 C 
BRANCH  66  67
ATOM     67  C   UNK d   0       2.877   6.858  30.875  0.00  0.00     0.139 C 
ATOM     68  O   UNK d   0       2.217   7.111  29.801  0.00  0.00    -0.650 OA
BRANCH  67  69
ATOM     69  O   UNK d   0       4.012   7.652  31.038  0.00  0.00    -0.776 OA
ATOM     70  H   UNK d   0       3.942   8.613  30.673  0.00  0.00     0.167 HD
ENDBRANCH  67  69
ENDBRANCH  66  67
ENDBRANCH  65  66
ENDBRANCH  14  65
ENDBRANCH   6   7
ENDBRANCH   5   6
ENDBRANCH   2   5
TORSDOF 28
ENDMDL
MODEL 17
REMARK VINA RESULT:      -7.4      2.174      8.340
REMARK  28 active torsions:
REMARK  status: ('A' for Active; 'I' for Inactive)
REMARK    1  A    between atoms: C_2  and  O_3 
REMARK    2  A    between atoms: C_2  and  C_4 
REMARK    3  A    between atoms: C_4  and  C_5 
REMARK    4  A    between atoms: C_5  and  C_6 
REMARK    5  A    between atoms: C_7  and  C_8 
REMARK    6  A    between atoms: C_8  and  C_9 
REMARK    7  A    between atoms: C_9  and  O_11 
REMARK    8  A    between atoms: C_28  and  C_29 
REMARK    9  A    between atoms: C_29  and  C_30 
REMARK   10  A    between atoms: C_30  and  O_32 
REMARK   11  A    between atoms: C_33  and  C_34 
REMARK   12  A    between atoms: C_34  and  C_35 
REMARK   13  A    between atoms: C_35  and  C_36 
REMARK   14  A    between atoms: C_36  and  O_38 
REMARK   15  A    between atoms: C_39  and  C_40 
REMARK   16  A    between atoms: C_40  and  C_41 
REMARK   17  A    between atoms: C_41  and  C_42 
REMARK   18  A    between atoms: C_42  and  O_44 
REMARK   19  A    between atoms: C_45  and  C_46 
REMARK   20  A    between atoms: C_46  and  C_47 
REMARK   21  A    between atoms: C_47  and  O_49 
REMARK   22  A    between atoms: C_50  and  C_51 
REMARK   23  A    between atoms: C_51  and  C_52 
REMARK   24  A    between atoms: C_52  and  O_54 
REMARK   25  A    between atoms: C_55  and  C_56 
REMARK   26  A    between atoms: C_56  and  C_57 
REMARK   27  A    between atoms: C_57  and  C_58 
REMARK   28  A    between atoms: C_58  and  O_60 
ROOT
ATOM      1  O   UNK d   0      34.116  -5.482  49.217  0.00  0.00    -0.650 OA
ATOM      2  C   UNK d   0      34.203  -6.484  48.472  0.00  0.00     0.139 C 
ENDROOT
BRANCH   2   3
ATOM      3  O   UNK d   0      33.062  -7.009  47.914  0.00  0.00    -0.776 OA
ATOM      4  H   UNK d   0      32.347  -6.403  47.507  0.00  0.00     0.167 HD
ENDBRANCH   2   3
BRANCH   2   5
ATOM      5  C   UNK d   0      35.532  -7.098  48.196  0.00  0.00     0.115 C 
BRANCH   5   6
ATOM      6  C   UNK d   0      36.459  -6.079  47.591  0.00  0.00     0.052 C 
BRANCH   6   7
ATOM      7  C   UNK d   0      35.954  -5.545  46.272  0.00  0.00    -0.020 A 
ATOM      8  C   UNK d   0      35.922  -6.165  45.120  0.00  0.00    -0.011 A 
ATOM      9  C   UNK d   0      35.361  -5.252  44.138  0.00  0.00     0.067 A 
ATOM     10  C   UNK d   0      35.047  -5.302  42.771  0.00  0.00     0.062 C 
ATOM     11  N   UNK d   0      35.085  -4.096  44.778  0.00  0.00    -0.248 NA
ATOM     12  C   UNK d   0      34.249  -4.407  42.051  0.00  0.00     0.041 A 
ATOM     13  N   UNK d   0      34.184  -3.062  42.073  0.00  0.00    -0.355 N 
ATOM     14  C   UNK d   0      33.280  -4.917  41.168  0.00  0.00    -0.022 A 
ATOM     15  C   UNK d   0      33.194  -2.706  41.232  0.00  0.00     0.042 A 
ATOM     16  H   UNK d   0      34.838  -2.377  42.656  0.00  0.00     0.166 HD
ATOM     17  C   UNK d   0      32.708  -1.431  40.881  0.00  0.00     0.062 C 
ATOM     18  C   UNK d   0      32.604  -3.843  40.647  0.00  0.00    -0.013 A 
ATOM     19  C   UNK d   0      32.428  -0.361  41.693  0.00  0.00     0.067 A 
ATOM     20  N   UNK d   0      32.843  -0.438  42.960  0.00  0.00    -0.248 NA
ATOM     21  C   UNK d   0      31.745   0.913  41.543  0.00  0.00    -0.011 A 
ATOM     22  C   UNK d   0      32.479   0.692  43.650  0.00  0.00     0.066 A 
ATOM     23  C   UNK d   0      32.882   0.761  44.975  0.00  0.00     0.062 C 
ATOM     24  C   UNK d   0      31.774   1.522  42.693  0.00  0.00    -0.020 A 
ATOM     25  C   UNK d   0      33.695  -0.143  45.676  0.00  0.00     0.041 A 
ATOM     26  N   UNK d   0      33.749  -1.480  45.666  0.00  0.00    -0.355 N 
ATOM     27  C   UNK d   0      34.670   0.370  46.559  0.00  0.00    -0.022 A 
ATOM     28  C   UNK d   0      34.729  -1.838  46.510  0.00  0.00     0.042 A 
ATOM     29  H   UNK d   0      33.084  -2.168  45.087  0.00  0.00     0.166 HD
ATOM     30  C   UNK d   0      35.217  -3.102  46.876  0.00  0.00     0.062 C 
ATOM     31  C   UNK d   0      35.329  -0.695  47.090  0.00  0.00    -0.013 A 
ATOM     32  C   UNK d   0      35.418  -4.208  46.065  0.00  0.00     0.066 A 
BRANCH   8  33
ATOM     33  C   UNK d   0      36.373  -7.541  44.843  0.00  0.00     0.151 C 
BRANCH  33  34
ATOM     34  C   UNK d   0      37.632  -7.586  44.076  0.00  0.00     0.143 C 
ATOM     35  O   UNK d   0      37.667  -7.229  42.890  0.00  0.00    -0.650 OA
BRANCH  34  36
ATOM     36  O   UNK d   0      38.780  -8.030  44.689  0.00  0.00    -0.776 OA
ATOM     37  H   UNK d   0      38.743  -8.659  45.503  0.00  0.00     0.167 HD
ENDBRANCH  34  36
ENDBRANCH  33  34
ENDBRANCH   8  33
BRANCH  31  38
ATOM     38  C   UNK d   0      36.470  -0.634  48.079  0.00  0.00     0.151 C 
BRANCH  38  39
ATOM     39  C   UNK d   0      37.480  -1.641  47.834  0.00  0.00     0.143 C 
ATOM     40  O   UNK d   0      38.274  -1.569  46.879  0.00  0.00    -0.650 OA
BRANCH  39  41
ATOM     41  O   UNK d   0      37.579  -2.737  48.691  0.00  0.00    -0.776 OA
ATOM     42  H   UNK d   0      38.453  -3.272  48.657  0.00  0.00     0.167 HD
ENDBRANCH  39  41
ENDBRANCH  38  39
ENDBRANCH  31  38
BRANCH  27  43
ATOM     43  C   UNK d   0      34.987   1.803  46.908  0.00  0.00     0.052 C 
BRANCH  43  44
ATOM     44  C   UNK d   0      35.716   1.947  48.205  0.00  0.00     0.115 C 
BRANCH  44  45
ATOM     45  C   UNK d   0      36.486   3.216  48.120  0.00  0.00     0.139 C 
ATOM     46  O   UNK d   0      36.204   4.018  47.196  0.00  0.00    -0.650 OA
BRANCH  45  47
ATOM     47  O   UNK d   0      37.484   3.545  49.011  0.00  0.00    -0.776 OA
ATOM     48  H   UNK d   0      37.559   3.122  49.950  0.00  0.00     0.167 HD
ENDBRANCH  45  47
ENDBRANCH  44  45
ENDBRANCH  43  44
ENDBRANCH  27  43
BRANCH  24  49
ATOM     49  C   UNK d   0      31.231   2.861  42.980  0.00  0.00     0.052 C 
BRANCH  49  50
ATOM     50  C   UNK d   0      32.117   3.925  42.386  0.00  0.00     0.115 C 
BRANCH  50  51
ATOM     51  C   UNK d   0      31.585   4.680  41.259  0.00  0.00     0.139 C 
ATOM     52  O   UNK d   0      30.391   5.057  41.201  0.00  0.00    -0.650 OA
BRANCH  51  53
ATOM     53  O   UNK d   0      32.415   5.003  40.196  0.00  0.00    -0.776 OA
ATOM     54  H   UNK d   0      32.313   5.908  39.772  0.00  0.00     0.167 HD
ENDBRANCH  51  53
ENDBRANCH  50  51
ENDBRANCH  49  50
ENDBRANCH  24  49
BRANCH  21  55
ATOM     55  C   UNK d   0      31.138   1.390  40.265  0.00  0.00     0.151 C 
BRANCH  55  56
ATOM     56  C   UNK d   0      32.133   1.497  39.188  0.00  0.00     0.143 C 
ATOM     57  O   UNK d   0      33.033   2.360  39.184  0.00  0.00    -0.650 OA
BRANCH  56  58
ATOM     58  O   UNK d   0      32.052   0.587  38.135  0.00  0.00    -0.776 OA
ATOM     59  H   UNK d   0      31.497  -0.264  38.337  0.00  0.00     0.167 HD
ENDBRANCH  56  58
ENDBRANCH  55  56
ENDBRANCH  21  55
BRANCH  18  60
ATOM     60  C   UNK d   0      31.469  -3.933  39.656  0.00  0.00     0.151 C 
BRANCH  60  61
ATOM     61  C   UNK d   0      32.046  -3.588  38.348  0.00  0.00     0.143 C 
ATOM     62  O   UNK d   0      32.071  -2.477  37.818  0.00  0.00    -0.650 OA
BRANCH  61  63
ATOM     63  O   UNK d   0      32.630  -4.669  37.644  0.00  0.00    -0.776 OA
ATOM     64  H   UNK d   0      32.295  -5.608  37.765  0.00  0.00     0.167 HD
ENDBRANCH  61  63
ENDBRANCH  60  61
ENDBRANCH  18  60
BRANCH  14  65
ATOM     65  C   UNK d   0      33.014  -6.323  40.710  0.00  0.00     0.052 C 
BRANCH  65  66
ATOM     66  C   UNK d   0      34.248  -7.044  40.299  0.00  0.00     0.115 C 
BRANCH  66  67
ATOM     67  C   UNK d   0      34.526  -7.241  38.905  0.00  0.00     0.139 C 
ATOM     68  O   UNK d   0      35.754  -7.300  38.526  0.00  0.00    -0.650 OA
BRANCH  67  69
ATOM     69  O   UNK d   0      33.610  -7.381  37.863  0.00  0.00    -0.776 OA
ATOM     70  H   UNK d   0      33.119  -8.285  37.818  0.00  0.00     0.167 HD
ENDBRANCH  67  69
ENDBRANCH  66  67
ENDBRANCH  65  66
ENDBRANCH  14  65
ENDBRANCH   6   7
ENDBRANCH   5   6
ENDBRANCH   2   5
TORSDOF 28
ENDMDL
MODEL 18
REMARK VINA RESULT:      -7.3     28.517     32.302
REMARK  28 active torsions:
REMARK  status: ('A' for Active; 'I' for Inactive)
REMARK    1  A    between atoms: C_2  and  O_3 
REMARK    2  A    between atoms: C_2  and  C_4 
REMARK    3  A    between atoms: C_4  and  C_5 
REMARK    4  A    between atoms: C_5  and  C_6 
REMARK    5  A    between atoms: C_7  and  C_8 
REMARK    6  A    between atoms: C_8  and  C_9 
REMARK    7  A    between atoms: C_9  and  O_11 
REMARK    8  A    between atoms: C_28  and  C_29 
REMARK    9  A    between atoms: C_29  and  C_30 
REMARK   10  A    between atoms: C_30  and  O_32 
REMARK   11  A    between atoms: C_33  and  C_34 
REMARK   12  A    between atoms: C_34  and  C_35 
REMARK   13  A    between atoms: C_35  and  C_36 
REMARK   14  A    between atoms: C_36  and  O_38 
REMARK   15  A    between atoms: C_39  and  C_40 
REMARK   16  A    between atoms: C_40  and  C_41 
REMARK   17  A    between atoms: C_41  and  C_42 
REMARK   18  A    between atoms: C_42  and  O_44 
REMARK   19  A    between atoms: C_45  and  C_46 
REMARK   20  A    between atoms: C_46  and  C_47 
REMARK   21  A    between atoms: C_47  and  O_49 
REMARK   22  A    between atoms: C_50  and  C_51 
REMARK   23  A    between atoms: C_51  and  C_52 
REMARK   24  A    between atoms: C_52  and  O_54 
REMARK   25  A    between atoms: C_55  and  C_56 
REMARK   26  A    between atoms: C_56  and  C_57 
REMARK   27  A    between atoms: C_57  and  C_58 
REMARK   28  A    between atoms: C_58  and  O_60 
ROOT
ATOM      1  O   UNK d   0      -0.622   3.571  40.579  0.00  0.00    -0.650 OA
ATOM      2  C   UNK d   0       0.032   4.440  39.960  0.00  0.00     0.139 C 
ENDROOT
BRANCH   2   3
ATOM      3  O   UNK d   0       1.069   4.050  39.147  0.00  0.00    -0.776 OA
ATOM      4  H   UNK d   0       1.453   3.104  39.198  0.00  0.00     0.167 HD
ENDBRANCH   2   3
BRANCH   2   5
ATOM      5  C   UNK d   0      -0.313   5.882  40.108  0.00  0.00     0.115 C 
BRANCH   5   6
ATOM      6  C   UNK d   0       0.665   6.729  39.340  0.00  0.00     0.052 C 
BRANCH   6   7
ATOM      7  C   UNK d   0       1.540   7.568  40.241  0.00  0.00    -0.020 A 
ATOM      8  C   UNK d   0       1.785   8.850  40.147  0.00  0.00    -0.011 A 
ATOM      9  C   UNK d   0       2.688   9.210  41.228  0.00  0.00     0.067 A 
ATOM     10  C   UNK d   0       3.298  10.388  41.687  0.00  0.00     0.062 C 
ATOM     11  N   UNK d   0       2.945   8.085  41.927  0.00  0.00    -0.248 NA
ATOM     12  C   UNK d   0       3.923  10.592  42.922  0.00  0.00     0.041 A 
ATOM     13  N   UNK d   0       4.765   9.814  43.629  0.00  0.00    -0.355 N 
ATOM     14  C   UNK d   0       3.635  11.764  43.645  0.00  0.00    -0.022 A 
ATOM     15  C   UNK d   0       5.013  10.459  44.785  0.00  0.00     0.042 A 
ATOM     16  H   UNK d   0       5.191   8.838  43.309  0.00  0.00     0.166 HD
ATOM     17  C   UNK d   0       5.824  10.095  45.878  0.00  0.00     0.062 C 
ATOM     18  C   UNK d   0       4.322  11.685  44.831  0.00  0.00    -0.013 A 
ATOM     19  C   UNK d   0       5.923   8.883  46.512  0.00  0.00     0.067 A 
ATOM     20  N   UNK d   0       5.335   7.840  45.919  0.00  0.00    -0.248 NA
ATOM     21  C   UNK d   0       6.522   8.393  47.743  0.00  0.00    -0.011 A 
ATOM     22  C   UNK d   0       5.505   6.705  46.674  0.00  0.00     0.066 A 
ATOM     23  C   UNK d   0       4.974   5.534  46.153  0.00  0.00     0.062 C 
ATOM     24  C   UNK d   0       6.270   7.119  47.834  0.00  0.00    -0.020 A 
ATOM     25  C   UNK d   0       4.361   5.348  44.905  0.00  0.00     0.041 A 
ATOM     26  N   UNK d   0       3.513   6.114  44.209  0.00  0.00    -0.355 N 
ATOM     27  C   UNK d   0       4.654   4.173  44.178  0.00  0.00    -0.022 A 
ATOM     28  C   UNK d   0       3.257   5.469  43.060  0.00  0.00     0.042 A 
ATOM     29  H   UNK d   0       3.077   7.089  44.537  0.00  0.00     0.166 HD
ATOM     30  C   UNK d   0       2.445   5.815  41.968  0.00  0.00     0.062 C 
ATOM     31  C   UNK d   0       3.960   4.242  43.009  0.00  0.00    -0.013 A 
ATOM     32  C   UNK d   0       2.284   7.061  41.384  0.00  0.00     0.066 A 
BRANCH   8  33
ATOM     33  C   UNK d   0       1.256   9.780  39.133  0.00  0.00     0.151 C 
BRANCH  33  34
ATOM     34  C   UNK d   0       2.274  10.192  38.150  0.00  0.00     0.143 C 
ATOM     35  O   UNK d   0       3.120  11.053  38.431  0.00  0.00    -0.650 OA
BRANCH  34  36
ATOM     36  O   UNK d   0       2.283   9.611  36.903  0.00  0.00    -0.776 OA
ATOM     37  H   UNK d   0       1.428   9.559  36.332  0.00  0.00     0.167 HD
ENDBRANCH  34  36
ENDBRANCH  33  34
ENDBRANCH   8  33
BRANCH  31  38
ATOM     38  C   UNK d   0       3.972   3.212  41.903  0.00  0.00     0.151 C 
BRANCH  38  39
ATOM     39  C   UNK d   0       2.762   2.420  41.861  0.00  0.00     0.143 C 
ATOM     40  O   UNK d   0       2.353   1.885  40.815  0.00  0.00    -0.650 OA
BRANCH  39  41
ATOM     41  O   UNK d   0       2.018   2.240  43.027  0.00  0.00    -0.776 OA
ATOM     42  H   UNK d   0       2.507   2.391  43.914  0.00  0.00     0.167 HD
ENDBRANCH  39  41
ENDBRANCH  38  39
ENDBRANCH  31  38
BRANCH  27  43
ATOM     43  C   UNK d   0       5.547   3.015  44.547  0.00  0.00     0.052 C 
BRANCH  43  44
ATOM     44  C   UNK d   0       5.185   2.383  45.853  0.00  0.00     0.115 C 
BRANCH  44  45
ATOM     45  C   UNK d   0       4.284   1.244  45.538  0.00  0.00     0.139 C 
ATOM     46  O   UNK d   0       4.332   0.753  44.383  0.00  0.00    -0.650 OA
BRANCH  45  47
ATOM     47  O   UNK d   0       3.409   0.707  46.457  0.00  0.00    -0.776 OA
ATOM     48  H   UNK d   0       2.602   0.121  46.187  0.00  0.00     0.167 HD
ENDBRANCH  45  47
ENDBRANCH  44  45
ENDBRANCH  43  44
ENDBRANCH  27  43
BRANCH  24  49
ATOM     49  C   UNK d   0       6.724   6.219  48.907  0.00  0.00     0.052 C 
BRANCH  49  50
ATOM     50  C   UNK d   0       5.601   5.311  49.340  0.00  0.00     0.115 C 
BRANCH  50  51
ATOM     51  C   UNK d   0       5.969   4.007  49.876  0.00  0.00     0.139 C 
ATOM     52  O   UNK d   0       5.913   3.738  51.099  0.00  0.00    -0.650 OA
BRANCH  51  53
ATOM     53  O   UNK d   0       6.405   3.010  49.016  0.00  0.00    -0.776 OA
ATOM     54  H   UNK d   0       7.156   3.223  48.383  0.00  0.00     0.167 HD
ENDBRANCH  51  53
ENDBRANCH  50  51
ENDBRANCH  49  50
ENDBRANCH  24  49
BRANCH  21  55
ATOM     55  C   UNK d   0       7.286   9.249  48.697  0.00  0.00     0.151 C 
BRANCH  55  56
ATOM     56  C   UNK d   0       8.698   9.386  48.306  0.00  0.00     0.143 C 
ATOM     57  O   UNK d   0       9.593   8.633  48.737  0.00  0.00    -0.650 OA
BRANCH  56  58
ATOM     58  O   UNK d   0       9.029  10.406  47.415  0.00  0.00    -0.776 OA
ATOM     59  H   UNK d   0       9.799  11.024  47.727  0.00  0.00     0.167 HD
ENDBRANCH  56  58
ENDBRANCH  55  56
ENDBRANCH  21  55
BRANCH  18  60
ATOM     60  C   UNK d   0       4.293  12.731  45.918  0.00  0.00     0.151 C 
BRANCH  60  61
ATOM     61  C   UNK d   0       5.523  13.521  45.750  0.00  0.00     0.143 C 
ATOM     62  O   UNK d   0       6.603  13.341  46.314  0.00  0.00    -0.650 OA
BRANCH  61  63
ATOM     63  O   UNK d   0       5.428  14.597  44.836  0.00  0.00    -0.776 OA
ATOM     64  H   UNK d   0       6.248  14.983  44.401  0.00  0.00     0.167 HD
ENDBRANCH  61  63
ENDBRANCH  60  61
ENDBRANCH  18  60
BRANCH  14  65
ATOM     65  C   UNK d   0       2.847  12.984  43.262  0.00  0.00     0.052 C 
BRANCH  65  66
ATOM     66  C   UNK d   0       1.392  12.848  43.539  0.00  0.00     0.115 C 
BRANCH  66  67
ATOM     67  C   UNK d   0       0.535  12.242  42.560  0.00  0.00     0.139 C 
ATOM     68  O   UNK d   0       0.106  11.049  42.775  0.00  0.00    -0.650 OA
BRANCH  67  69
ATOM     69  O   UNK d   0       0.087  12.793  41.360  0.00  0.00    -0.776 OA
ATOM     70  H   UNK d   0       0.809  12.953  40.643  0.00  0.00     0.167 HD
ENDBRANCH  67  69
ENDBRANCH  66  67
ENDBRANCH  65  66
ENDBRANCH  14  65
ENDBRANCH   6   7
ENDBRANCH   5   6
ENDBRANCH   2   5
TORSDOF 28
ENDMDL
