MODEL 1
REMARK VINA RESULT:     -10.1      0.000      0.000
REMARK  16 active torsions:
REMARK  status: ('A' for Active; 'I' for Inactive)
REMARK    1  A    between atoms: C_6  and  C_7 
REMARK    2  A    between atoms: C_7  and  C_8 
REMARK    3  A    between atoms: C_8  and  C_9 
REMARK    4  A    between atoms: C_9  and  O_11 
REMARK    5  A    between atoms: C_16  and  C_17 
REMARK    6  A    between atoms: C_17  and  C_18 
REMARK    7  A    between atoms: C_18  and  C_19 
REMARK    8  A    between atoms: C_19  and  O_21 
REMARK    9  A    between atoms: C_28  and  C_29 
REMARK   10  A    between atoms: C_29  and  C_30 
REMARK   11  A    between atoms: C_30  and  C_31 
REMARK   12  A    between atoms: C_31  and  O_33 
REMARK   13  A    between atoms: C_42  and  C_43 
REMARK   14  A    between atoms: C_43  and  C_44 
REMARK   15  A    between atoms: C_44  and  C_45 
REMARK   16  A    between atoms: C_45  and  O_47 
ROOT
HETATM    1  C   UNK     0       9.269  -8.530   8.965  0.00  0.00     0.051 C 
HETATM    2  C   UNK     0       9.916  -7.161   8.914  0.00  0.00    -0.031 A 
HETATM    3  C   UNK     0       9.686  -6.049   9.709  0.00  0.00     0.021 A 
HETATM    4  N   UNK     0      10.472  -5.031   9.283  0.00  0.00    -0.361 N 
HETATM    5  C   UNK     0      11.204  -5.473   8.239  0.00  0.00     0.022 A 
HETATM    6  C   UNK     0      10.879  -6.801   7.980  0.00  0.00    -0.027 A 
HETATM    7  C   UNK     0      12.285  -4.777   7.472  0.00  0.00     0.115 C 
HETATM    8  C   UNK     0      13.288  -3.977   8.283  0.00  0.00     0.021 A 
HETATM    9  N   UNK     0      13.788  -4.249   9.499  0.00  0.00    -0.361 N 
HETATM   10  C   UNK     0      14.575  -3.216   9.869  0.00  0.00     0.022 A 
HETATM   11  C   UNK     0      14.590  -2.257   8.860  0.00  0.00    -0.027 A 
HETATM   12  C   UNK     0      13.782  -2.730   7.858  0.00  0.00    -0.031 A 
HETATM   13  C   UNK     0      13.501  -2.020   6.553  0.00  0.00     0.051 C 
HETATM   14  C   UNK     0      15.299  -3.068  11.204  0.00  0.00     0.115 C 
HETATM   15  C   UNK     0      14.371  -3.035  12.407  0.00  0.00     0.021 A 
HETATM   16  N   UNK     0      13.487  -3.976  12.789  0.00  0.00    -0.361 N 
HETATM   17  C   UNK     0      12.814  -3.538  13.856  0.00  0.00     0.022 A 
HETATM   18  C   UNK     0      13.289  -2.255  14.191  0.00  0.00    -0.027 A 
HETATM   19  C   UNK     0      14.264  -1.951  13.277  0.00  0.00    -0.031 A 
HETATM   20  C   UNK     0      15.068  -0.664  13.296  0.00  0.00     0.051 C 
HETATM   21  C   UNK     0      11.675  -4.179  14.616  0.00  0.00     0.115 C 
HETATM   22  C   UNK     0      10.694  -5.015  13.829  0.00  0.00     0.022 A 
HETATM   23  N   UNK     0      10.182  -4.770  12.615  0.00  0.00    -0.361 N 
HETATM   24  C   UNK     0       9.464  -5.846  12.234  0.00  0.00     0.021 A 
HETATM   25  C   UNK     0       9.506  -6.802  13.231  0.00  0.00    -0.031 A 
HETATM   26  C   UNK     0       8.826  -8.155  13.284  0.00  0.00     0.051 C 
HETATM   27  C   UNK     0      10.287  -6.293  14.262  0.00  0.00    -0.027 A 
HETATM   28  C   UNK     0       8.773  -6.078  10.902  0.00  0.00     0.115 C 
HETATM   29  H   UNK     0      10.475  -3.996   9.697  0.00  0.00     0.165 HD
HETATM   30  H   UNK     0      13.628  -5.191  10.077  0.00  0.00     0.165 HD
HETATM   31  H   UNK     0      13.368  -4.990  12.326  0.00  0.00     0.165 HD
HETATM   32  H   UNK     0      10.287  -3.818  12.034  0.00  0.00     0.165 HD
ENDROOT
BRANCH   6  33
HETATM   33  C   UNK     0      11.406  -7.740   6.925  0.00  0.00     0.051 C 
BRANCH  33  34
HETATM   34  C   UNK     0      10.509  -7.735   5.709  0.00  0.00     0.114 C 
BRANCH  34  35
HETATM   35  C   UNK     0      11.157  -6.872   4.680  0.00  0.00     0.139 C 
HETATM   36  O   UNK     0      12.245  -7.230   4.141  0.00  0.00    -0.650 OA
BRANCH  35  37
HETATM   37  O   UNK     0      10.613  -5.662   4.267  0.00  0.00    -0.776 OA
HETATM   38  H   UNK     0      10.984  -5.149   3.484  0.00  0.00     0.167 HD
ENDBRANCH  35  37
ENDBRANCH  34  35
ENDBRANCH  33  34
ENDBRANCH   6  33
BRANCH  27  39
HETATM   39  C   UNK     0      10.505  -7.013  15.546  0.00  0.00     0.051 C 
BRANCH  39  40
HETATM   40  C   UNK     0      11.849  -7.507  15.845  0.00  0.00     0.114 C 
BRANCH  40  41
HETATM   41  C   UNK     0      12.421  -8.646  15.163  0.00  0.00     0.139 C 
HETATM   42  O   UNK     0      13.624  -8.745  14.889  0.00  0.00    -0.650 OA
BRANCH  41  43
HETATM   43  O   UNK     0      11.569  -9.721  14.779  0.00  0.00    -0.776 OA
HETATM   44  H   UNK     0      12.033 -10.618  14.707  0.00  0.00     0.167 HD
ENDBRANCH  41  43
ENDBRANCH  40  41
ENDBRANCH  39  40
ENDBRANCH  27  39
BRANCH  11  45
HETATM   45  C   UNK     0      15.328  -0.946   8.818  0.00  0.00     0.051 C 
BRANCH  45  46
HETATM   46  C   UNK     0      16.780  -1.077   8.531  0.00  0.00     0.114 C 
BRANCH  46  47
HETATM   47  C   UNK     0      17.265   0.263   8.092  0.00  0.00     0.139 C 
HETATM   48  O   UNK     0      16.533   0.951   7.368  0.00  0.00    -0.650 OA
BRANCH  47  49
HETATM   49  O   UNK     0      18.498   0.725   8.480  0.00  0.00    -0.776 OA
HETATM   50  H   UNK     0      19.143   1.175   7.821  0.00  0.00     0.167 HD
ENDBRANCH  47  49
ENDBRANCH  46  47
ENDBRANCH  45  46
ENDBRANCH  11  45
BRANCH  18  51
HETATM   51  C   UNK     0      12.851  -1.374  15.332  0.00  0.00     0.051 C 
BRANCH  51  52
HETATM   52  C   UNK     0      11.563  -0.701  14.882  0.00  0.00     0.114 C 
BRANCH  52  53
HETATM   53  C   UNK     0      11.597   0.757  15.108  0.00  0.00     0.139 C 
HETATM   54  O   UNK     0      11.060   1.242  16.116  0.00  0.00    -0.650 OA
BRANCH  53  55
HETATM   55  O   UNK     0      12.221   1.571  14.195  0.00  0.00    -0.776 OA
HETATM   56  H   UNK     0      12.861   1.280  13.494  0.00  0.00     0.167 HD
ENDBRANCH  53  55
ENDBRANCH  52  53
ENDBRANCH  51  52
ENDBRANCH  18  51
TORSDOF 16
ENDMDL
MODEL 2
REMARK VINA RESULT:     -10.0     31.796     35.077
REMARK  16 active torsions:
REMARK  status: ('A' for Active; 'I' for Inactive)
REMARK    1  A    between atoms: C_6  and  C_7 
REMARK    2  A    between atoms: C_7  and  C_8 
REMARK    3  A    between atoms: C_8  and  C_9 
REMARK    4  A    between atoms: C_9  and  O_11 
REMARK    5  A    between atoms: C_16  and  C_17 
REMARK    6  A    between atoms: C_17  and  C_18 
REMARK    7  A    between atoms: C_18  and  C_19 
REMARK    8  A    between atoms: C_19  and  O_21 
REMARK    9  A    between atoms: C_28  and  C_29 
REMARK   10  A    between atoms: C_29  and  C_30 
REMARK   11  A    between atoms: C_30  and  C_31 
REMARK   12  A    between atoms: C_31  and  O_33 
REMARK   13  A    between atoms: C_42  and  C_43 
REMARK   14  A    between atoms: C_43  and  C_44 
REMARK   15  A    between atoms: C_44  and  C_45 
REMARK   16  A    between atoms: C_45  and  O_47 
ROOT
HETATM    1  C   UNK     0     -15.605   0.437  -5.487  0.00  0.00     0.051 C 
HETATM    2  C   UNK     0     -14.548   0.229  -6.552  0.00  0.00    -0.031 A 
HETATM    3  C   UNK     0     -14.146  -0.942  -7.175  0.00  0.00     0.021 A 
HETATM    4  N   UNK     0     -13.145  -0.659  -8.043  0.00  0.00    -0.361 N 
HETATM    5  C   UNK     0     -12.907   0.668  -7.992  0.00  0.00     0.022 A 
HETATM    6  C   UNK     0     -13.765   1.254  -7.067  0.00  0.00    -0.027 A 
HETATM    7  C   UNK     0     -11.972   1.499  -8.813  0.00  0.00     0.115 C 
HETATM    8  C   UNK     0     -11.918   1.196 -10.300  0.00  0.00     0.021 A 
HETATM    9  N   UNK     0     -12.916   0.818 -11.113  0.00  0.00    -0.361 N 
HETATM   10  C   UNK     0     -12.393   0.570 -12.332  0.00  0.00     0.022 A 
HETATM   11  C   UNK     0     -11.021   0.804 -12.307  0.00  0.00    -0.027 A 
HETATM   12  C   UNK     0     -10.715   1.199 -11.030  0.00  0.00    -0.031 A 
HETATM   13  C   UNK     0      -9.334   1.567 -10.536  0.00  0.00     0.051 C 
HETATM   14  C   UNK     0     -13.153   0.053 -13.551  0.00  0.00     0.115 C 
HETATM   15  C   UNK     0     -13.795  -1.309 -13.344  0.00  0.00     0.021 A 
HETATM   16  N   UNK     0     -14.702  -1.657 -12.411  0.00  0.00    -0.361 N 
HETATM   17  C   UNK     0     -14.962  -2.961 -12.518  0.00  0.00     0.022 A 
HETATM   18  C   UNK     0     -14.196  -3.488 -13.577  0.00  0.00    -0.027 A 
HETATM   19  C   UNK     0     -13.471  -2.442 -14.087  0.00  0.00    -0.031 A 
HETATM   20  C   UNK     0     -12.533  -2.566 -15.274  0.00  0.00     0.051 C 
HETATM   21  C   UNK     0     -15.846  -3.848 -11.670  0.00  0.00     0.115 C 
HETATM   22  C   UNK     0     -15.943  -3.531 -10.196  0.00  0.00     0.022 A 
HETATM   23  N   UNK     0     -14.967  -3.148  -9.363  0.00  0.00    -0.361 N 
HETATM   24  C   UNK     0     -15.522  -2.831  -8.176  0.00  0.00     0.021 A 
HETATM   25  C   UNK     0     -16.889  -3.025  -8.243  0.00  0.00    -0.031 A 
HETATM   26  C   UNK     0     -17.931  -2.846  -7.159  0.00  0.00     0.051 C 
HETATM   27  C   UNK     0     -17.182  -3.473  -9.526  0.00  0.00    -0.027 A 
HETATM   28  C   UNK     0     -14.832  -2.259  -6.950  0.00  0.00     0.115 C 
HETATM   29  H   UNK     0     -12.588  -1.404  -8.655  0.00  0.00     0.165 HD
HETATM   30  H   UNK     0     -14.000   0.773 -10.842  0.00  0.00     0.165 HD
HETATM   31  H   UNK     0     -15.204  -0.957 -11.693  0.00  0.00     0.165 HD
HETATM   32  H   UNK     0     -13.869  -3.139  -9.592  0.00  0.00     0.165 HD
ENDROOT
BRANCH   6  33
HETATM   33  C   UNK     0     -13.894   2.694  -6.639  0.00  0.00     0.051 C 
BRANCH  33  34
HETATM   34  C   UNK     0     -14.732   3.472  -7.626  0.00  0.00     0.114 C 
BRANCH  34  35
HETATM   35  C   UNK     0     -14.658   4.910  -7.238  0.00  0.00     0.139 C 
HETATM   36  O   UNK     0     -13.789   5.667  -7.761  0.00  0.00    -0.650 OA
BRANCH  35  37
HETATM   37  O   UNK     0     -15.518   5.481  -6.308  0.00  0.00    -0.776 OA
HETATM   38  H   UNK     0     -16.427   5.831  -6.565  0.00  0.00     0.167 HD
ENDBRANCH  35  37
ENDBRANCH  34  35
ENDBRANCH  33  34
ENDBRANCH   6  33
BRANCH  27  39
HETATM   39  C   UNK     0     -18.553  -3.860  -9.956  0.00  0.00     0.051 C 
BRANCH  39  40
HETATM   40  C   UNK     0     -19.226  -3.031 -10.956  0.00  0.00     0.114 C 
BRANCH  40  41
HETATM   41  C   UNK     0     -18.930  -1.626 -11.118  0.00  0.00     0.139 C 
HETATM   42  O   UNK     0     -18.248  -1.174 -12.047  0.00  0.00    -0.650 OA
BRANCH  41  43
HETATM   43  O   UNK     0     -19.441  -0.698 -10.167  0.00  0.00    -0.776 OA
HETATM   44  H   UNK     0     -20.027  -1.111  -9.451  0.00  0.00     0.167 HD
ENDBRANCH  41  43
ENDBRANCH  40  41
ENDBRANCH  39  40
ENDBRANCH  27  39
BRANCH  11  45
HETATM   45  C   UNK     0     -10.022   0.671 -13.425  0.00  0.00     0.051 C 
BRANCH  45  46
HETATM   46  C   UNK     0     -10.087   1.764 -14.428  0.00  0.00     0.114 C 
BRANCH  46  47
HETATM   47  C   UNK     0      -8.771   2.464 -14.405  0.00  0.00     0.139 C 
HETATM   48  O   UNK     0      -8.686   3.584 -14.929  0.00  0.00    -0.650 OA
BRANCH  47  49
HETATM   49  O   UNK     0      -7.676   1.882 -13.817  0.00  0.00    -0.776 OA
HETATM   50  H   UNK     0      -7.715   0.944 -13.401  0.00  0.00     0.167 HD
ENDBRANCH  47  49
ENDBRANCH  46  47
ENDBRANCH  45  46
ENDBRANCH  11  45
BRANCH  18  51
HETATM   51  C   UNK     0     -14.173  -4.904 -14.089  0.00  0.00     0.051 C 
BRANCH  51  52
HETATM   52  C   UNK     0     -13.358  -5.707 -13.085  0.00  0.00     0.114 C 
BRANCH  52  53
HETATM   53  C   UNK     0     -13.859  -7.088 -12.949  0.00  0.00     0.139 C 
HETATM   54  O   UNK     0     -13.820  -7.861 -13.919  0.00  0.00    -0.650 OA
BRANCH  53  55
HETATM   55  O   UNK     0     -14.369  -7.510 -11.746  0.00  0.00    -0.776 OA
HETATM   56  H   UNK     0     -15.171  -8.081 -11.620  0.00  0.00     0.167 HD
ENDBRANCH  53  55
ENDBRANCH  52  53
ENDBRANCH  51  52
ENDBRANCH  18  51
TORSDOF 16
ENDMDL
MODEL 3
REMARK VINA RESULT:      -9.8      2.159      7.566
REMARK  16 active torsions:
REMARK  status: ('A' for Active; 'I' for Inactive)
REMARK    1  A    between atoms: C_6  and  C_7 
REMARK    2  A    between atoms: C_7  and  C_8 
REMARK    3  A    between atoms: C_8  and  C_9 
REMARK    4  A    between atoms: C_9  and  O_11 
REMARK    5  A    between atoms: C_16  and  C_17 
REMARK    6  A    between atoms: C_17  and  C_18 
REMARK    7  A    between atoms: C_18  and  C_19 
REMARK    8  A    between atoms: C_19  and  O_21 
REMARK    9  A    between atoms: C_28  and  C_29 
REMARK   10  A    between atoms: C_29  and  C_30 
REMARK   11  A    between atoms: C_30  and  C_31 
REMARK   12  A    between atoms: C_31  and  O_33 
REMARK   13  A    between atoms: C_42  and  C_43 
REMARK   14  A    between atoms: C_43  and  C_44 
REMARK   15  A    between atoms: C_44  and  C_45 
REMARK   16  A    between atoms: C_45  and  O_47 
ROOT
HETATM    1  C   UNK     0      13.781   0.128   8.352  0.00  0.00     0.051 C 
HETATM    2  C   UNK     0      13.454  -1.348   8.455  0.00  0.00    -0.031 A 
HETATM    3  C   UNK     0      13.950  -2.300   9.331  0.00  0.00     0.021 A 
HETATM    4  N   UNK     0      13.398  -3.501   9.037  0.00  0.00    -0.361 N 
HETATM    5  C   UNK     0      12.555  -3.334   7.997  0.00  0.00     0.022 A 
HETATM    6  C   UNK     0      12.568  -1.999   7.606  0.00  0.00    -0.027 A 
HETATM    7  C   UNK     0      11.633  -4.320   7.350  0.00  0.00     0.115 C 
HETATM    8  C   UNK     0      10.858  -5.239   8.278  0.00  0.00     0.021 A 
HETATM    9  N   UNK     0      10.347  -4.966   9.489  0.00  0.00    -0.361 N 
HETATM   10  C   UNK     0       9.822  -6.105   9.988  0.00  0.00     0.022 A 
HETATM   11  C   UNK     0       9.990  -7.137   9.069  0.00  0.00    -0.027 A 
HETATM   12  C   UNK     0      10.642  -6.598   7.990  0.00  0.00    -0.031 A 
HETATM   13  C   UNK     0      11.035  -7.353   6.739  0.00  0.00     0.051 C 
HETATM   14  C   UNK     0       9.190  -6.278  11.366  0.00  0.00     0.115 C 
HETATM   15  C   UNK     0      10.138  -5.991  12.519  0.00  0.00     0.021 A 
HETATM   16  N   UNK     0      10.801  -4.847  12.771  0.00  0.00    -0.361 N 
HETATM   17  C   UNK     0      11.586  -5.021  13.836  0.00  0.00     0.022 A 
HETATM   18  C   UNK     0      11.420  -6.339  14.306  0.00  0.00    -0.027 A 
HETATM   19  C   UNK     0      10.510  -6.935  13.473  0.00  0.00    -0.031 A 
HETATM   20  C   UNK     0      10.014  -8.359  13.646  0.00  0.00     0.051 C 
HETATM   21  C   UNK     0      12.577  -4.076  14.479  0.00  0.00     0.115 C 
HETATM   22  C   UNK     0      13.323  -3.126  13.572  0.00  0.00     0.022 A 
HETATM   23  N   UNK     0      13.839  -3.368  12.360  0.00  0.00    -0.361 N 
HETATM   24  C   UNK     0      14.287  -2.204  11.850  0.00  0.00     0.021 A 
HETATM   25  C   UNK     0      14.064  -1.188  12.759  0.00  0.00    -0.031 A 
HETATM   26  C   UNK     0      14.427   0.279  12.659  0.00  0.00     0.051 C 
HETATM   27  C   UNK     0      13.448  -1.754  13.870  0.00  0.00    -0.027 A 
HETATM   28  C   UNK     0      14.870  -1.957  10.469  0.00  0.00     0.115 C 
HETATM   29  H   UNK     0      13.638  -4.467   9.540  0.00  0.00     0.165 HD
HETATM   30  H   UNK     0      10.311  -3.960   9.973  0.00  0.00     0.165 HD
HETATM   31  H   UNK     0      10.677  -3.881  12.215  0.00  0.00     0.165 HD
HETATM   32  H   UNK     0      13.931  -4.373  11.871  0.00  0.00     0.165 HD
ENDROOT
BRANCH   6  33
HETATM   33  C   UNK     0      11.814  -1.305   6.500  0.00  0.00     0.051 C 
BRANCH  33  34
HETATM   34  C   UNK     0      12.511  -1.496   5.175  0.00  0.00     0.114 C 
BRANCH  34  35
HETATM   35  C   UNK     0      11.480  -1.917   4.184  0.00  0.00     0.139 C 
HETATM   36  O   UNK     0      10.997  -3.086   4.225  0.00  0.00    -0.650 OA
BRANCH  35  37
HETATM   37  O   UNK     0      11.006  -1.070   3.190  0.00  0.00    -0.776 OA
HETATM   38  H   UNK     0      11.609  -0.688   2.480  0.00  0.00     0.167 HD
ENDBRANCH  35  37
ENDBRANCH  34  35
ENDBRANCH  33  34
ENDBRANCH   6  33
BRANCH  27  39
HETATM   39  C   UNK     0      13.114  -0.978  15.095  0.00  0.00     0.051 C 
BRANCH  39  40
HETATM   40  C   UNK     0      11.730  -0.546  15.287  0.00  0.00     0.114 C 
BRANCH  40  41
HETATM   41  C   UNK     0      11.378   0.838  15.512  0.00  0.00     0.139 C 
HETATM   42  O   UNK     0      10.698   1.224  16.472  0.00  0.00    -0.650 OA
BRANCH  41  43
HETATM   43  O   UNK     0      11.830   1.824  14.589  0.00  0.00    -0.776 OA
HETATM   44  H   UNK     0      11.723   1.567  13.615  0.00  0.00     0.167 HD
ENDBRANCH  41  43
ENDBRANCH  40  41
ENDBRANCH  39  40
ENDBRANCH  27  39
BRANCH  11  45
HETATM   45  C   UNK     0       9.562  -8.576   9.180  0.00  0.00     0.051 C 
BRANCH  45  46
HETATM   46  C   UNK     0       8.294  -8.887   8.471  0.00  0.00     0.114 C 
BRANCH  46  47
HETATM   47  C   UNK     0       7.212  -8.920   9.496  0.00  0.00     0.139 C 
HETATM   48  O   UNK     0       6.518  -7.907   9.658  0.00  0.00    -0.650 OA
BRANCH  47  49
HETATM   49  O   UNK     0       6.989 -10.048  10.246  0.00  0.00    -0.776 OA
HETATM   50  H   UNK     0       7.068 -10.046  11.270  0.00  0.00     0.167 HD
ENDBRANCH  47  49
ENDBRANCH  46  47
ENDBRANCH  45  46
ENDBRANCH  11  45
BRANCH  18  51
HETATM   51  C   UNK     0      12.077  -6.987  15.497  0.00  0.00     0.051 C 
BRANCH  51  52
HETATM   52  C   UNK     0      13.538  -7.187  15.122  0.00  0.00     0.114 C 
BRANCH  52  53
HETATM   53  C   UNK     0      13.908  -8.616  15.096  0.00  0.00     0.139 C 
HETATM   54  O   UNK     0      13.065  -9.471  14.781  0.00  0.00    -0.650 OA
BRANCH  53  55
HETATM   55  O   UNK     0      15.187  -8.992  15.426  0.00  0.00    -0.776 OA
HETATM   56  H   UNK     0      16.022  -8.533  15.145  0.00  0.00     0.167 HD
ENDBRANCH  53  55
ENDBRANCH  52  53
ENDBRANCH  51  52
ENDBRANCH  18  51
TORSDOF 16
ENDMDL
MODEL 4
REMARK VINA RESULT:      -9.8     33.832     35.605
REMARK  16 active torsions:
REMARK  status: ('A' for Active; 'I' for Inactive)
REMARK    1  A    between atoms: C_6  and  C_7 
REMARK    2  A    between atoms: C_7  and  C_8 
REMARK    3  A    between atoms: C_8  and  C_9 
REMARK    4  A    between atoms: C_9  and  O_11 
REMARK    5  A    between atoms: C_16  and  C_17 
REMARK    6  A    between atoms: C_17  and  C_18 
REMARK    7  A    between atoms: C_18  and  C_19 
REMARK    8  A    between atoms: C_19  and  O_21 
REMARK    9  A    between atoms: C_28  and  C_29 
REMARK   10  A    between atoms: C_29  and  C_30 
REMARK   11  A    between atoms: C_30  and  C_31 
REMARK   12  A    between atoms: C_31  and  O_33 
REMARK   13  A    between atoms: C_42  and  C_43 
REMARK   14  A    between atoms: C_43  and  C_44 
REMARK   15  A    between atoms: C_44  and  C_45 
REMARK   16  A    between atoms: C_45  and  O_47 
ROOT
HETATM    1  C   UNK     0     -18.819  -7.778  -6.231  0.00  0.00     0.051 C 
HETATM    2  C   UNK     0     -18.328  -7.173  -7.530  0.00  0.00    -0.031 A 
HETATM    3  C   UNK     0     -18.614  -5.936  -8.088  0.00  0.00     0.021 A 
HETATM    4  N   UNK     0     -17.977  -5.832  -9.279  0.00  0.00    -0.361 N 
HETATM    5  C   UNK     0     -17.284  -6.970  -9.487  0.00  0.00     0.022 A 
HETATM    6  C   UNK     0     -17.484  -7.832  -8.414  0.00  0.00    -0.027 A 
HETATM    7  C   UNK     0     -16.346  -7.324 -10.599  0.00  0.00     0.115 C 
HETATM    8  C   UNK     0     -15.374  -6.244 -11.040  0.00  0.00     0.021 A 
HETATM    9  N   UNK     0     -14.756  -5.319 -10.290  0.00  0.00    -0.361 N 
HETATM   10  C   UNK     0     -14.057  -4.509 -11.114  0.00  0.00     0.022 A 
HETATM   11  C   UNK     0     -14.223  -4.930 -12.431  0.00  0.00    -0.027 A 
HETATM   12  C   UNK     0     -15.051  -6.023 -12.391  0.00  0.00    -0.031 A 
HETATM   13  C   UNK     0     -15.506  -6.819 -13.593  0.00  0.00     0.051 C 
HETATM   14  C   UNK     0     -13.253  -3.280 -10.702  0.00  0.00     0.115 C 
HETATM   15  C   UNK     0     -14.084  -2.195 -10.036  0.00  0.00     0.021 A 
HETATM   16  N   UNK     0     -14.830  -2.300  -8.920  0.00  0.00    -0.361 N 
HETATM   17  C   UNK     0     -15.461  -1.144  -8.704  0.00  0.00     0.022 A 
HETATM   18  C   UNK     0     -15.102  -0.239  -9.723  0.00  0.00    -0.027 A 
HETATM   19  C   UNK     0     -14.238  -0.909 -10.550  0.00  0.00    -0.031 A 
HETATM   20  C   UNK     0     -13.578  -0.284 -11.765  0.00  0.00     0.051 C 
HETATM   21  C   UNK     0     -16.463  -0.769  -7.637  0.00  0.00     0.115 C 
HETATM   22  C   UNK     0     -17.408  -1.846  -7.157  0.00  0.00     0.022 A 
HETATM   23  N   UNK     0     -18.035  -2.782  -7.880  0.00  0.00    -0.361 N 
HETATM   24  C   UNK     0     -18.660  -3.624  -7.032  0.00  0.00     0.021 A 
HETATM   25  C   UNK     0     -18.440  -3.213  -5.732  0.00  0.00    -0.031 A 
HETATM   26  C   UNK     0     -18.965  -3.807  -4.442  0.00  0.00     0.051 C 
HETATM   27  C   UNK     0     -17.641  -2.076  -5.786  0.00  0.00    -0.027 A 
HETATM   28  C   UNK     0     -19.424  -4.891  -7.376  0.00  0.00     0.115 C 
HETATM   29  H   UNK     0     -18.052  -4.970  -9.981  0.00  0.00     0.165 HD
HETATM   30  H   UNK     0     -14.770  -5.264  -9.174  0.00  0.00     0.165 HD
HETATM   31  H   UNK     0     -14.875  -3.193  -8.244  0.00  0.00     0.165 HD
HETATM   32  H   UNK     0     -18.077  -2.834  -8.999  0.00  0.00     0.165 HD
ENDROOT
BRANCH   6  33
HETATM   33  C   UNK     0     -16.943  -9.218  -8.170  0.00  0.00     0.051 C 
BRANCH  33  34
HETATM   34  C   UNK     0     -17.814 -10.258  -8.835  0.00  0.00     0.114 C 
BRANCH  34  35
HETATM   35  C   UNK     0     -17.303 -11.597  -8.424  0.00  0.00     0.139 C 
HETATM   36  O   UNK     0     -18.112 -12.516  -8.103  0.00  0.00    -0.650 OA
BRANCH  35  37
HETATM   37  O   UNK     0     -15.948 -11.900  -8.375  0.00  0.00    -0.776 OA
HETATM   38  H   UNK     0     -15.586 -12.640  -7.795  0.00  0.00     0.167 HD
ENDBRANCH  35  37
ENDBRANCH  34  35
ENDBRANCH  33  34
ENDBRANCH   6  33
BRANCH  27  39
HETATM   39  C   UNK     0     -17.249  -1.303  -4.576  0.00  0.00     0.051 C 
BRANCH  39  40
HETATM   40  C   UNK     0     -18.026  -0.113  -4.231  0.00  0.00     0.114 C 
BRANCH  40  41
HETATM   41  C   UNK     0     -19.044  -0.128  -3.205  0.00  0.00     0.139 C 
HETATM   42  O   UNK     0     -19.084  -0.966  -2.294  0.00  0.00    -0.650 OA
BRANCH  41  43
HETATM   43  O   UNK     0     -20.063   0.866  -3.227  0.00  0.00    -0.776 OA
HETATM   44  H   UNK     0     -20.238   1.307  -2.332  0.00  0.00     0.167 HD
ENDBRANCH  41  43
ENDBRANCH  40  41
ENDBRANCH  39  40
ENDBRANCH  27  39
BRANCH  11  45
HETATM   45  C   UNK     0     -13.635  -4.347 -13.687  0.00  0.00     0.051 C 
BRANCH  45  46
HETATM   46  C   UNK     0     -14.432  -3.238 -14.271  0.00  0.00     0.114 C 
BRANCH  46  47
HETATM   47  C   UNK     0     -13.482  -2.345 -14.995  0.00  0.00     0.139 C 
HETATM   48  O   UNK     0     -13.857  -1.808 -16.046  0.00  0.00    -0.650 OA
BRANCH  47  49
HETATM   49  O   UNK     0     -12.218  -2.122 -14.509  0.00  0.00    -0.776 OA
HETATM   50  H   UNK     0     -12.005  -2.162 -13.505  0.00  0.00     0.167 HD
ENDBRANCH  47  49
ENDBRANCH  46  47
ENDBRANCH  45  46
ENDBRANCH  11  45
BRANCH  18  51
HETATM   51  C   UNK     0     -15.542   1.193  -9.888  0.00  0.00     0.051 C 
BRANCH  51  52
HETATM   52  C   UNK     0     -16.664   1.178 -10.915  0.00  0.00     0.114 C 
BRANCH  52  53
HETATM   53  C   UNK     0     -16.484   2.224 -11.940  0.00  0.00     0.139 C 
HETATM   54  O   UNK     0     -15.344   2.515 -12.338  0.00  0.00    -0.650 OA
BRANCH  53  55
HETATM   55  O   UNK     0     -17.582   2.874 -12.449  0.00  0.00    -0.776 OA
HETATM   56  H   UNK     0     -17.584   3.507 -13.214  0.00  0.00     0.167 HD
ENDBRANCH  53  55
ENDBRANCH  52  53
ENDBRANCH  51  52
ENDBRANCH  18  51
TORSDOF 16
ENDMDL
MODEL 5
REMARK VINA RESULT:      -9.6      2.197      7.593
REMARK  16 active torsions:
REMARK  status: ('A' for Active; 'I' for Inactive)
REMARK    1  A    between atoms: C_6  and  C_7 
REMARK    2  A    between atoms: C_7  and  C_8 
REMARK    3  A    between atoms: C_8  and  C_9 
REMARK    4  A    between atoms: C_9  and  O_11 
REMARK    5  A    between atoms: C_16  and  C_17 
REMARK    6  A    between atoms: C_17  and  C_18 
REMARK    7  A    between atoms: C_18  and  C_19 
REMARK    8  A    between atoms: C_19  and  O_21 
REMARK    9  A    between atoms: C_28  and  C_29 
REMARK   10  A    between atoms: C_29  and  C_30 
REMARK   11  A    between atoms: C_30  and  C_31 
REMARK   12  A    between atoms: C_31  and  O_33 
REMARK   13  A    between atoms: C_42  and  C_43 
REMARK   14  A    between atoms: C_43  and  C_44 
REMARK   15  A    between atoms: C_44  and  C_45 
REMARK   16  A    between atoms: C_45  and  O_47 
ROOT
HETATM    1  C   UNK     0       9.077  -4.210  16.797  0.00  0.00     0.051 C 
HETATM    2  C   UNK     0      10.305  -3.991  15.935  0.00  0.00    -0.031 A 
HETATM    3  C   UNK     0      10.888  -4.836  15.004  0.00  0.00     0.021 A 
HETATM    4  N   UNK     0      11.991  -4.238  14.496  0.00  0.00    -0.361 N 
HETATM    5  C   UNK     0      12.120  -3.027  15.077  0.00  0.00     0.022 A 
HETATM    6  C   UNK     0      11.083  -2.842  15.985  0.00  0.00    -0.027 A 
HETATM    7  C   UNK     0      13.111  -1.940  14.802  0.00  0.00     0.115 C 
HETATM    8  C   UNK     0      13.425  -1.657  13.343  0.00  0.00     0.021 A 
HETATM    9  N   UNK     0      12.602  -1.708  12.285  0.00  0.00    -0.361 N 
HETATM   10  C   UNK     0      13.331  -1.472  11.174  0.00  0.00     0.022 A 
HETATM   11  C   UNK     0      14.660  -1.254  11.527  0.00  0.00    -0.027 A 
HETATM   12  C   UNK     0      14.726  -1.369  12.893  0.00  0.00    -0.031 A 
HETATM   13  C   UNK     0      15.978  -1.205  13.724  0.00  0.00     0.051 C 
HETATM   14  C   UNK     0      12.819  -1.496   9.737  0.00  0.00     0.115 C 
HETATM   15  C   UNK     0      12.254  -2.840   9.307  0.00  0.00     0.021 A 
HETATM   16  N   UNK     0      11.237  -3.522   9.867  0.00  0.00    -0.361 N 
HETATM   17  C   UNK     0      11.095  -4.691   9.240  0.00  0.00     0.022 A 
HETATM   18  C   UNK     0      12.058  -4.772   8.215  0.00  0.00    -0.027 A 
HETATM   19  C   UNK     0      12.777  -3.606   8.266  0.00  0.00    -0.031 A 
HETATM   20  C   UNK     0      13.900  -3.264   7.305  0.00  0.00     0.051 C 
HETATM   21  C   UNK     0      10.155  -5.840   9.528  0.00  0.00     0.115 C 
HETATM   22  C   UNK     0       9.798  -6.105  10.972  0.00  0.00     0.022 A 
HETATM   23  N   UNK     0      10.596  -6.057  12.046  0.00  0.00    -0.361 N 
HETATM   24  C   UNK     0       9.835  -6.218  13.147  0.00  0.00     0.021 A 
HETATM   25  C   UNK     0       8.515  -6.383  12.772  0.00  0.00    -0.031 A 
HETATM   26  C   UNK     0       7.301  -6.635  13.642  0.00  0.00     0.051 C 
HETATM   27  C   UNK     0       8.467  -6.314  11.384  0.00  0.00    -0.027 A 
HETATM   28  C   UNK     0      10.274  -6.146  14.599  0.00  0.00     0.115 C 
HETATM   29  H   UNK     0      12.694  -4.692  13.759  0.00  0.00     0.165 HD
HETATM   30  H   UNK     0      11.495  -1.861  12.323  0.00  0.00     0.165 HD
HETATM   31  H   UNK     0      10.575  -3.150  10.692  0.00  0.00     0.165 HD
HETATM   32  H   UNK     0      11.713  -5.953  12.035  0.00  0.00     0.165 HD
ENDROOT
BRANCH   6  33
HETATM   33  C   UNK     0      10.780  -1.671  16.886  0.00  0.00     0.051 C 
BRANCH  33  34
HETATM   34  C   UNK     0       9.932  -0.649  16.168  0.00  0.00     0.114 C 
BRANCH  34  35
HETATM   35  C   UNK     0      10.551   0.688  16.400  0.00  0.00     0.139 C 
HETATM   36  O   UNK     0      11.400   1.147  15.582  0.00  0.00    -0.650 OA
BRANCH  35  37
HETATM   37  O   UNK     0      10.236   1.480  17.498  0.00  0.00    -0.776 OA
HETATM   38  H   UNK     0      10.803   2.266  17.770  0.00  0.00     0.167 HD
ENDBRANCH  35  37
ENDBRANCH  34  35
ENDBRANCH  33  34
ENDBRANCH   6  33
BRANCH  27  39
HETATM   39  C   UNK     0       7.215  -6.520  10.606  0.00  0.00     0.051 C 
BRANCH  39  40
HETATM   40  C   UNK     0       6.918  -7.865  10.113  0.00  0.00     0.114 C 
BRANCH  40  41
HETATM   41  C   UNK     0       7.677  -8.480   9.047  0.00  0.00     0.139 C 
HETATM   42  O   UNK     0       7.718  -8.035   7.892  0.00  0.00    -0.650 OA
BRANCH  41  43
HETATM   43  O   UNK     0       8.423  -9.661   9.323  0.00  0.00    -0.776 OA
HETATM   44  H   UNK     0       7.871 -10.510   9.340  0.00  0.00     0.167 HD
ENDBRANCH  41  43
ENDBRANCH  40  41
ENDBRANCH  39  40
ENDBRANCH  27  39
BRANCH  11  45
HETATM   45  C   UNK     0      15.833  -0.947  10.636  0.00  0.00     0.051 C 
BRANCH  45  46
HETATM   46  C   UNK     0      16.931  -1.944  10.714  0.00  0.00     0.114 C 
BRANCH  46  47
HETATM   47  C   UNK     0      17.103  -2.519   9.349  0.00  0.00     0.139 C 
HETATM   48  O   UNK     0      16.898  -1.789   8.369  0.00  0.00    -0.650 OA
BRANCH  47  49
HETATM   49  O   UNK     0      17.478  -3.828   9.180  0.00  0.00    -0.776 OA
HETATM   50  H   UNK     0      17.697  -4.439   9.976  0.00  0.00     0.167 HD
ENDBRANCH  47  49
ENDBRANCH  46  47
ENDBRANCH  45  46
ENDBRANCH  11  45
BRANCH  18  51
HETATM   51  C   UNK     0      12.268  -5.890   7.227  0.00  0.00     0.051 C 
BRANCH  51  52
HETATM   52  C   UNK     0      11.400  -5.562   6.022  0.00  0.00     0.114 C 
BRANCH  52  53
HETATM   53  C   UNK     0      11.183  -6.743   5.163  0.00  0.00     0.139 C 
HETATM   54  O   UNK     0      12.123  -7.208   4.498  0.00  0.00    -0.650 OA
BRANCH  53  55
HETATM   55  O   UNK     0       9.938  -7.320   5.102  0.00  0.00    -0.776 OA
HETATM   56  H   UNK     0       9.643  -8.126   5.600  0.00  0.00     0.167 HD
ENDBRANCH  53  55
ENDBRANCH  52  53
ENDBRANCH  51  52
ENDBRANCH  18  51
TORSDOF 16
ENDMDL
MODEL 6
REMARK VINA RESULT:      -9.5      2.087      7.709
REMARK  16 active torsions:
REMARK  status: ('A' for Active; 'I' for Inactive)
REMARK    1  A    between atoms: C_6  and  C_7 
REMARK    2  A    between atoms: C_7  and  C_8 
REMARK    3  A    between atoms: C_8  and  C_9 
REMARK    4  A    between atoms: C_9  and  O_11 
REMARK    5  A    between atoms: C_16  and  C_17 
REMARK    6  A    between atoms: C_17  and  C_18 
REMARK    7  A    between atoms: C_18  and  C_19 
REMARK    8  A    between atoms: C_19  and  O_21 
REMARK    9  A    between atoms: C_28  and  C_29 
REMARK   10  A    between atoms: C_29  and  C_30 
REMARK   11  A    between atoms: C_30  and  C_31 
REMARK   12  A    between atoms: C_31  and  O_33 
REMARK   13  A    between atoms: C_42  and  C_43 
REMARK   14  A    between atoms: C_43  and  C_44 
REMARK   15  A    between atoms: C_44  and  C_45 
REMARK   16  A    between atoms: C_45  and  O_47 
ROOT
HETATM    1  C   UNK     0      13.990  -0.473   6.489  0.00  0.00     0.051 C 
HETATM    2  C   UNK     0      13.363  -0.393   7.867  0.00  0.00    -0.031 A 
HETATM    3  C   UNK     0      12.154  -0.903   8.314  0.00  0.00     0.021 A 
HETATM    4  N   UNK     0      11.987  -0.563   9.614  0.00  0.00    -0.361 N 
HETATM    5  C   UNK     0      13.066   0.145  10.007  0.00  0.00     0.022 A 
HETATM    6  C   UNK     0      13.946   0.272   8.938  0.00  0.00    -0.027 A 
HETATM    7  C   UNK     0      13.416   0.671  11.364  0.00  0.00     0.115 C 
HETATM    8  C   UNK     0      13.164  -0.255  12.541  0.00  0.00     0.021 A 
HETATM    9  N   UNK     0      13.294  -1.589  12.597  0.00  0.00    -0.361 N 
HETATM   10  C   UNK     0      12.874  -2.000  13.812  0.00  0.00     0.022 A 
HETATM   11  C   UNK     0      12.471  -0.899  14.563  0.00  0.00    -0.027 A 
HETATM   12  C   UNK     0      12.652   0.204  13.767  0.00  0.00    -0.031 A 
HETATM   13  C   UNK     0      12.351   1.630  14.170  0.00  0.00     0.051 C 
HETATM   14  C   UNK     0      12.785  -3.446  14.294  0.00  0.00     0.115 C 
HETATM   15  C   UNK     0      11.847  -4.313  13.470  0.00  0.00     0.021 A 
HETATM   16  N   UNK     0      11.913  -4.571  12.151  0.00  0.00    -0.361 N 
HETATM   17  C   UNK     0      10.865  -5.318  11.797  0.00  0.00     0.022 A 
HETATM   18  C   UNK     0      10.083  -5.566  12.943  0.00  0.00    -0.027 A 
HETATM   19  C   UNK     0      10.710  -4.933  13.984  0.00  0.00    -0.031 A 
HETATM   20  C   UNK     0      10.215  -4.976  15.419  0.00  0.00     0.051 C 
HETATM   21  C   UNK     0      10.441  -5.813  10.433  0.00  0.00     0.115 C 
HETATM   22  C   UNK     0      10.725  -4.921   9.247  0.00  0.00     0.022 A 
HETATM   23  N   UNK     0      10.609  -3.589   9.164  0.00  0.00    -0.361 N 
HETATM   24  C   UNK     0      11.106  -3.194   7.974  0.00  0.00     0.021 A 
HETATM   25  C   UNK     0      11.543  -4.299   7.270  0.00  0.00    -0.031 A 
HETATM   26  C   UNK     0      12.137  -4.370   5.879  0.00  0.00     0.051 C 
HETATM   27  C   UNK     0      11.310  -5.416   8.064  0.00  0.00    -0.027 A 
HETATM   28  C   UNK     0      11.275  -1.774   7.463  0.00  0.00     0.115 C 
HETATM   29  H   UNK     0      11.089  -0.791  10.234  0.00  0.00     0.165 HD
HETATM   30  H   UNK     0      13.728  -2.239  11.799  0.00  0.00     0.165 HD
HETATM   31  H   UNK     0      12.742  -4.260  11.463  0.00  0.00     0.165 HD
HETATM   32  H   UNK     0      10.135  -2.919   9.927  0.00  0.00     0.165 HD
ENDROOT
BRANCH   6  33
HETATM   33  C   UNK     0      15.279   0.971   8.856  0.00  0.00     0.051 C 
BRANCH  33  34
HETATM   34  C   UNK     0      16.395   0.046   9.281  0.00  0.00     0.114 C 
BRANCH  34  35
HETATM   35  C   UNK     0      17.450   0.106   8.229  0.00  0.00     0.139 C 
HETATM   36  O   UNK     0      17.315   0.878   7.235  0.00  0.00    -0.650 OA
BRANCH  35  37
HETATM   37  O   UNK     0      18.607  -0.661   8.284  0.00  0.00    -0.776 OA
HETATM   38  H   UNK     0      18.586  -1.648   8.482  0.00  0.00     0.167 HD
ENDBRANCH  35  37
ENDBRANCH  34  35
ENDBRANCH  33  34
ENDBRANCH   6  33
BRANCH  27  39
HETATM   39  C   UNK     0      11.588  -6.806   7.610  0.00  0.00     0.051 C 
BRANCH  39  40
HETATM   40  C   UNK     0      10.510  -7.553   6.962  0.00  0.00     0.114 C 
BRANCH  40  41
HETATM   41  C   UNK     0       9.512  -8.278   7.717  0.00  0.00     0.139 C 
HETATM   42  O   UNK     0       8.294  -8.155   7.534  0.00  0.00    -0.650 OA
BRANCH  41  43
HETATM   43  O   UNK     0       9.936  -9.185   8.730  0.00  0.00    -0.776 OA
HETATM   44  H   UNK     0      10.420  -8.750   9.506  0.00  0.00     0.167 HD
ENDBRANCH  41  43
ENDBRANCH  40  41
ENDBRANCH  39  40
ENDBRANCH  27  39
BRANCH  11  45
HETATM   45  C   UNK     0      11.940  -0.862  15.970  0.00  0.00     0.051 C 
BRANCH  45  46
HETATM   46  C   UNK     0      10.460  -0.955  16.061  0.00  0.00     0.114 C 
BRANCH  46  47
HETATM   47  C   UNK     0      10.014   0.064  17.054  0.00  0.00     0.139 C 
HETATM   48  O   UNK     0      10.376   1.239  16.900  0.00  0.00    -0.650 OA
BRANCH  47  49
HETATM   49  O   UNK     0       9.222  -0.290  18.117  0.00  0.00    -0.776 OA
HETATM   50  H   UNK     0       9.613  -0.690  18.979  0.00  0.00     0.167 HD
ENDBRANCH  47  49
ENDBRANCH  46  47
ENDBRANCH  45  46
ENDBRANCH  11  45
BRANCH  18  51
HETATM   51  C   UNK     0       8.820  -6.381  13.043  0.00  0.00     0.051 C 
BRANCH  51  52
HETATM   52  C   UNK     0       9.240  -7.837  12.908  0.00  0.00     0.114 C 
BRANCH  52  53
HETATM   53  C   UNK     0       9.497  -8.459  14.222  0.00  0.00     0.139 C 
HETATM   54  O   UNK     0       8.744  -8.220  15.180  0.00  0.00    -0.650 OA
BRANCH  53  55
HETATM   55  O   UNK     0      10.572  -9.299  14.378  0.00  0.00    -0.776 OA
HETATM   56  H   UNK     0      11.471  -9.178  13.974  0.00  0.00     0.167 HD
ENDBRANCH  53  55
ENDBRANCH  52  53
ENDBRANCH  51  52
ENDBRANCH  18  51
TORSDOF 16
ENDMDL
MODEL 7
REMARK VINA RESULT:      -9.4      2.771      9.811
REMARK  16 active torsions:
REMARK  status: ('A' for Active; 'I' for Inactive)
REMARK    1  A    between atoms: C_6  and  C_7 
REMARK    2  A    between atoms: C_7  and  C_8 
REMARK    3  A    between atoms: C_8  and  C_9 
REMARK    4  A    between atoms: C_9  and  O_11 
REMARK    5  A    between atoms: C_16  and  C_17 
REMARK    6  A    between atoms: C_17  and  C_18 
REMARK    7  A    between atoms: C_18  and  C_19 
REMARK    8  A    between atoms: C_19  and  O_21 
REMARK    9  A    between atoms: C_28  and  C_29 
REMARK   10  A    between atoms: C_29  and  C_30 
REMARK   11  A    between atoms: C_30  and  C_31 
REMARK   12  A    between atoms: C_31  and  O_33 
REMARK   13  A    between atoms: C_42  and  C_43 
REMARK   14  A    between atoms: C_43  and  C_44 
REMARK   15  A    between atoms: C_44  and  C_45 
REMARK   16  A    between atoms: C_45  and  O_47 
ROOT
HETATM    1  C   UNK     0      13.953  -0.501  13.608  0.00  0.00     0.051 C 
HETATM    2  C   UNK     0      12.974  -1.347  12.820  0.00  0.00    -0.031 A 
HETATM    3  C   UNK     0      12.240  -1.021  11.690  0.00  0.00     0.021 A 
HETATM    4  N   UNK     0      11.468  -2.078  11.345  0.00  0.00    -0.361 N 
HETATM    5  C   UNK     0      11.701  -3.074  12.224  0.00  0.00     0.022 A 
HETATM    6  C   UNK     0      12.636  -2.650  13.162  0.00  0.00    -0.027 A 
HETATM    7  C   UNK     0      11.177  -4.477  12.234  0.00  0.00     0.115 C 
HETATM    8  C   UNK     0      11.135  -5.198  10.899  0.00  0.00     0.021 A 
HETATM    9  N   UNK     0      11.999  -5.115   9.876  0.00  0.00    -0.361 N 
HETATM   10  C   UNK     0      11.517  -5.858   8.858  0.00  0.00     0.022 A 
HETATM   11  C   UNK     0      10.314  -6.445   9.239  0.00  0.00    -0.027 A 
HETATM   12  C   UNK     0      10.067  -6.033  10.524  0.00  0.00    -0.031 A 
HETATM   13  C   UNK     0       8.866  -6.428  11.353  0.00  0.00     0.051 C 
HETATM   14  C   UNK     0      12.141  -6.003   7.472  0.00  0.00     0.115 C 
HETATM   15  C   UNK     0      12.255  -4.694   6.709  0.00  0.00     0.021 A 
HETATM   16  N   UNK     0      12.911  -3.579   7.082  0.00  0.00    -0.361 N 
HETATM   17  C   UNK     0      12.711  -2.626   6.169  0.00  0.00     0.022 A 
HETATM   18  C   UNK     0      11.893  -3.147   5.147  0.00  0.00    -0.027 A 
HETATM   19  C   UNK     0      11.615  -4.443   5.496  0.00  0.00    -0.031 A 
HETATM   20  C   UNK     0      10.786  -5.388   4.645  0.00  0.00     0.051 C 
HETATM   21  C   UNK     0      13.165  -1.184   6.154  0.00  0.00     0.115 C 
HETATM   22  C   UNK     0      13.254  -0.467   7.481  0.00  0.00     0.022 A 
HETATM   23  N   UNK     0      12.410  -0.534   8.519  0.00  0.00    -0.361 N 
HETATM   24  C   UNK     0      12.949   0.151   9.548  0.00  0.00     0.021 A 
HETATM   25  C   UNK     0      14.164   0.681   9.159  0.00  0.00    -0.031 A 
HETATM   26  C   UNK     0      15.118   1.554   9.947  0.00  0.00     0.051 C 
HETATM   27  C   UNK     0      14.381   0.299   7.840  0.00  0.00    -0.027 A 
HETATM   28  C   UNK     0      12.408   0.282  10.961  0.00  0.00     0.115 C 
HETATM   29  H   UNK     0      10.735  -2.100  10.505  0.00  0.00     0.165 HD
HETATM   30  H   UNK     0      12.976  -4.572   9.886  0.00  0.00     0.165 HD
HETATM   31  H   UNK     0      13.568  -3.476   7.984  0.00  0.00     0.165 HD
HETATM   32  H   UNK     0      11.405  -1.030   8.521  0.00  0.00     0.165 HD
ENDROOT
BRANCH   6  33
HETATM   33  C   UNK     0      13.222  -3.378  14.345  0.00  0.00     0.051 C 
BRANCH  33  34
HETATM   34  C   UNK     0      14.491  -4.099  13.955  0.00  0.00     0.114 C 
BRANCH  34  35
HETATM   35  C   UNK     0      14.636  -5.271  14.865  0.00  0.00     0.139 C 
HETATM   36  O   UNK     0      13.619  -5.942  15.206  0.00  0.00    -0.650 OA
BRANCH  35  37
HETATM   37  O   UNK     0      15.864  -5.680  15.370  0.00  0.00    -0.776 OA
HETATM   38  H   UNK     0      16.391  -5.115  16.017  0.00  0.00     0.167 HD
ENDBRANCH  35  37
ENDBRANCH  34  35
ENDBRANCH  33  34
ENDBRANCH   6  33
BRANCH  27  39
HETATM   39  C   UNK     0      15.562   0.744   7.052  0.00  0.00     0.051 C 
BRANCH  39  40
HETATM   40  C   UNK     0      16.791  -0.044   7.138  0.00  0.00     0.114 C 
BRANCH  40  41
HETATM   41  C   UNK     0      17.838   0.263   8.087  0.00  0.00     0.139 C 
HETATM   42  O   UNK     0      18.094   1.411   8.474  0.00  0.00    -0.650 OA
BRANCH  41  43
HETATM   43  O   UNK     0      18.626  -0.799   8.614  0.00  0.00    -0.776 OA
HETATM   44  H   UNK     0      19.583  -0.815   8.284  0.00  0.00     0.167 HD
ENDBRANCH  41  43
ENDBRANCH  40  41
ENDBRANCH  39  40
ENDBRANCH  27  39
BRANCH  11  45
HETATM   45  C   UNK     0       9.419  -7.359   8.446  0.00  0.00     0.051 C 
BRANCH  45  46
HETATM   46  C   UNK     0       9.885  -8.768   8.393  0.00  0.00     0.114 C 
BRANCH  46  47
HETATM   47  C   UNK     0       8.686  -9.621   8.150  0.00  0.00     0.139 C 
HETATM   48  O   UNK     0       7.676  -9.097   7.662  0.00  0.00    -0.650 OA
BRANCH  47  49
HETATM   49  O   UNK     0       8.700 -10.957   8.461  0.00  0.00    -0.776 OA
HETATM   50  H   UNK     0       8.730 -11.291   9.432  0.00  0.00     0.167 HD
ENDBRANCH  47  49
ENDBRANCH  46  47
ENDBRANCH  45  46
ENDBRANCH  11  45
BRANCH  18  51
HETATM   51  C   UNK     0      11.420  -2.455   3.895  0.00  0.00     0.051 C 
BRANCH  51  52
HETATM   52  C   UNK     0      12.503  -2.676   2.850  0.00  0.00     0.114 C 
BRANCH  52  53
HETATM   53  C   UNK     0      12.071  -3.619   1.801  0.00  0.00     0.139 C 
HETATM   54  O   UNK     0      12.598  -4.739   1.716  0.00  0.00    -0.650 OA
BRANCH  53  55
HETATM   55  O   UNK     0      11.085  -3.248   0.918  0.00  0.00    -0.776 OA
HETATM   56  H   UNK     0      10.899  -2.324   0.606  0.00  0.00     0.167 HD
ENDBRANCH  53  55
ENDBRANCH  52  53
ENDBRANCH  51  52
ENDBRANCH  18  51
TORSDOF 16
ENDMDL
MODEL 8
REMARK VINA RESULT:      -9.2     32.088     34.109
REMARK  16 active torsions:
REMARK  status: ('A' for Active; 'I' for Inactive)
REMARK    1  A    between atoms: C_6  and  C_7 
REMARK    2  A    between atoms: C_7  and  C_8 
REMARK    3  A    between atoms: C_8  and  C_9 
REMARK    4  A    between atoms: C_9  and  O_11 
REMARK    5  A    between atoms: C_16  and  C_17 
REMARK    6  A    between atoms: C_17  and  C_18 
REMARK    7  A    between atoms: C_18  and  C_19 
REMARK    8  A    between atoms: C_19  and  O_21 
REMARK    9  A    between atoms: C_28  and  C_29 
REMARK   10  A    between atoms: C_29  and  C_30 
REMARK   11  A    between atoms: C_30  and  C_31 
REMARK   12  A    between atoms: C_31  and  O_33 
REMARK   13  A    between atoms: C_42  and  C_43 
REMARK   14  A    between atoms: C_43  and  C_44 
REMARK   15  A    between atoms: C_44  and  C_45 
REMARK   16  A    between atoms: C_45  and  O_47 
ROOT
HETATM    1  C   UNK     0     -18.286  -4.674  -9.967  0.00  0.00     0.051 C 
HETATM    2  C   UNK     0     -17.424  -3.534 -10.471  0.00  0.00    -0.031 A 
HETATM    3  C   UNK     0     -17.471  -2.187 -10.149  0.00  0.00     0.021 A 
HETATM    4  N   UNK     0     -16.528  -1.529 -10.865  0.00  0.00    -0.361 N 
HETATM    5  C   UNK     0     -15.876  -2.429 -11.629  0.00  0.00     0.022 A 
HETATM    6  C   UNK     0     -16.413  -3.693 -11.409  0.00  0.00    -0.027 A 
HETATM    7  C   UNK     0     -14.694  -2.237 -12.527  0.00  0.00     0.115 C 
HETATM    8  C   UNK     0     -13.574  -1.356 -12.000  0.00  0.00     0.021 A 
HETATM    9  N   UNK     0     -13.129  -1.234 -10.740  0.00  0.00    -0.361 N 
HETATM   10  C   UNK     0     -12.184  -0.270 -10.721  0.00  0.00     0.022 A 
HETATM   11  C   UNK     0     -12.010   0.237 -12.006  0.00  0.00    -0.027 A 
HETATM   12  C   UNK     0     -12.883  -0.443 -12.817  0.00  0.00    -0.031 A 
HETATM   13  C   UNK     0     -13.040  -0.229 -14.305  0.00  0.00     0.051 C 
HETATM   14  C   UNK     0     -11.449   0.248  -9.488  0.00  0.00     0.115 C 
HETATM   15  C   UNK     0     -12.363   0.862  -8.439  0.00  0.00     0.021 A 
HETATM   16  N   UNK     0     -13.390   0.273  -7.798  0.00  0.00    -0.361 N 
HETATM   17  C   UNK     0     -13.984   1.168  -7.007  0.00  0.00     0.022 A 
HETATM   18  C   UNK     0     -13.307   2.398  -7.131  0.00  0.00    -0.027 A 
HETATM   19  C   UNK     0     -12.293   2.192  -8.030  0.00  0.00    -0.031 A 
HETATM   20  C   UNK     0     -11.289   3.259  -8.429  0.00  0.00     0.051 C 
HETATM   21  C   UNK     0     -15.215   1.033  -6.139  0.00  0.00     0.115 C 
HETATM   22  C   UNK     0     -16.318   0.125  -6.630  0.00  0.00     0.022 A 
HETATM   23  N   UNK     0     -16.780  -0.020  -7.879  0.00  0.00    -0.361 N 
HETATM   24  C   UNK     0     -17.663  -1.039  -7.888  0.00  0.00     0.021 A 
HETATM   25  C   UNK     0     -17.781  -1.556  -6.612  0.00  0.00    -0.031 A 
HETATM   26  C   UNK     0     -18.673  -2.674  -6.115  0.00  0.00     0.051 C 
HETATM   27  C   UNK     0     -16.930  -0.827  -5.789  0.00  0.00    -0.027 A 
HETATM   28  C   UNK     0     -18.380  -1.637  -9.087  0.00  0.00     0.115 C 
HETATM   29  H   UNK     0     -16.357  -0.428 -10.855  0.00  0.00     0.165 HD
HETATM   30  H   UNK     0     -13.443  -1.862  -9.871  0.00  0.00     0.165 HD
HETATM   31  H   UNK     0     -13.672  -0.810  -7.869  0.00  0.00     0.165 HD
HETATM   32  H   UNK     0     -16.519   0.624  -8.758  0.00  0.00     0.165 HD
ENDROOT
BRANCH   6  33
HETATM   33  C   UNK     0     -16.044  -5.023 -12.017  0.00  0.00     0.051 C 
BRANCH  33  34
HETATM   34  C   UNK     0     -15.007  -5.727 -11.175  0.00  0.00     0.114 C 
BRANCH  34  35
HETATM   35  C   UNK     0     -14.113  -6.478 -12.104  0.00  0.00     0.139 C 
HETATM   36  O   UNK     0     -13.125  -5.899 -12.643  0.00  0.00    -0.650 OA
BRANCH  35  37
HETATM   37  O   UNK     0     -14.311  -7.817 -12.416  0.00  0.00    -0.776 OA
HETATM   38  H   UNK     0     -14.565  -8.497 -11.717  0.00  0.00     0.167 HD
ENDBRANCH  35  37
ENDBRANCH  34  35
ENDBRANCH  33  34
ENDBRANCH   6  33
BRANCH  27  39
HETATM   39  C   UNK     0     -16.836  -1.049  -4.321  0.00  0.00     0.051 C 
BRANCH  39  40
HETATM   40  C   UNK     0     -17.547  -0.129  -3.433  0.00  0.00     0.114 C 
BRANCH  40  41
HETATM   41  C   UNK     0     -18.962  -0.254  -3.167  0.00  0.00     0.139 C 
HETATM   42  O   UNK     0     -19.505  -1.318  -2.839  0.00  0.00    -0.650 OA
BRANCH  41  43
HETATM   43  O   UNK     0     -19.792   0.898  -3.282  0.00  0.00    -0.776 OA
HETATM   44  H   UNK     0     -19.287   1.766  -3.410  0.00  0.00     0.167 HD
ENDBRANCH  41  43
ENDBRANCH  40  41
ENDBRANCH  39  40
ENDBRANCH  27  39
BRANCH  11  45
HETATM   45  C   UNK     0     -11.067   1.313 -12.474  0.00  0.00     0.051 C 
BRANCH  45  46
HETATM   46  C   UNK     0      -9.896   0.804 -13.233  0.00  0.00     0.114 C 
BRANCH  46  47
HETATM   47  C   UNK     0      -9.187   1.988 -13.798  0.00  0.00     0.139 C 
HETATM   48  O   UNK     0      -9.862   2.945 -14.201  0.00  0.00    -0.650 OA
BRANCH  47  49
HETATM   49  O   UNK     0      -7.818   2.018 -13.871  0.00  0.00    -0.776 OA
HETATM   50  H   UNK     0      -7.323   2.391 -14.690  0.00  0.00     0.167 HD
ENDBRANCH  47  49
ENDBRANCH  46  47
ENDBRANCH  45  46
ENDBRANCH  11  45
BRANCH  18  51
HETATM   51  C   UNK     0     -13.597   3.692  -6.416  0.00  0.00     0.051 C 
BRANCH  51  52
HETATM   52  C   UNK     0     -14.549   4.469  -7.313  0.00  0.00     0.114 C 
BRANCH  52  53
HETATM   53  C   UNK     0     -14.870   5.797  -6.753  0.00  0.00     0.139 C 
HETATM   54  O   UNK     0     -14.539   6.825  -7.364  0.00  0.00    -0.650 OA
BRANCH  53  55
HETATM   55  O   UNK     0     -15.533   5.886  -5.553  0.00  0.00    -0.776 OA
HETATM   56  H   UNK     0     -15.290   6.478  -4.794  0.00  0.00     0.167 HD
ENDBRANCH  53  55
ENDBRANCH  52  53
ENDBRANCH  51  52
ENDBRANCH  18  51
TORSDOF 16
ENDMDL
MODEL 9
REMARK VINA RESULT:      -9.1     31.170     33.586
REMARK  16 active torsions:
REMARK  status: ('A' for Active; 'I' for Inactive)
REMARK    1  A    between atoms: C_6  and  C_7 
REMARK    2  A    between atoms: C_7  and  C_8 
REMARK    3  A    between atoms: C_8  and  C_9 
REMARK    4  A    between atoms: C_9  and  O_11 
REMARK    5  A    between atoms: C_16  and  C_17 
REMARK    6  A    between atoms: C_17  and  C_18 
REMARK    7  A    between atoms: C_18  and  C_19 
REMARK    8  A    between atoms: C_19  and  O_21 
REMARK    9  A    between atoms: C_28  and  C_29 
REMARK   10  A    between atoms: C_29  and  C_30 
REMARK   11  A    between atoms: C_30  and  C_31 
REMARK   12  A    between atoms: C_31  and  O_33 
REMARK   13  A    between atoms: C_42  and  C_43 
REMARK   14  A    between atoms: C_43  and  C_44 
REMARK   15  A    between atoms: C_44  and  C_45 
REMARK   16  A    between atoms: C_45  and  O_47 
ROOT
HETATM    1  C   UNK     0     -18.128  -4.953  -5.959  0.00  0.00     0.051 C 
HETATM    2  C   UNK     0     -17.161  -3.863  -5.544  0.00  0.00    -0.031 A 
HETATM    3  C   UNK     0     -15.799  -3.759  -5.779  0.00  0.00     0.021 A 
HETATM    4  N   UNK     0     -15.335  -2.629  -5.194  0.00  0.00    -0.361 N 
HETATM    5  C   UNK     0     -16.373  -2.006  -4.598  0.00  0.00     0.022 A 
HETATM    6  C   UNK     0     -17.530  -2.753  -4.795  0.00  0.00    -0.027 A 
HETATM    7  C   UNK     0     -16.416  -0.683  -3.900  0.00  0.00     0.115 C 
HETATM    8  C   UNK     0     -15.660   0.458  -4.555  0.00  0.00     0.021 A 
HETATM    9  N   UNK     0     -15.502   0.715  -5.863  0.00  0.00    -0.361 N 
HETATM   10  C   UNK     0     -14.679   1.778  -5.985  0.00  0.00     0.022 A 
HETATM   11  C   UNK     0     -14.303   2.224  -4.721  0.00  0.00    -0.027 A 
HETATM   12  C   UNK     0     -14.918   1.397  -3.816  0.00  0.00    -0.031 A 
HETATM   13  C   UNK     0     -14.801   1.507  -2.312  0.00  0.00     0.051 C 
HETATM   14  C   UNK     0     -14.173   2.381  -7.292  0.00  0.00     0.115 C 
HETATM   15  C   UNK     0     -13.359   1.416  -8.140  0.00  0.00     0.021 A 
HETATM   16  N   UNK     0     -13.749   0.226  -8.634  0.00  0.00    -0.361 N 
HETATM   17  C   UNK     0     -12.721  -0.345  -9.265  0.00  0.00     0.022 A 
HETATM   18  C   UNK     0     -11.610   0.519  -9.188  0.00  0.00    -0.027 A 
HETATM   19  C   UNK     0     -12.023   1.619  -8.482  0.00  0.00    -0.031 A 
HETATM   20  C   UNK     0     -11.139   2.819  -8.197  0.00  0.00     0.051 C 
HETATM   21  C   UNK     0     -12.617  -1.702  -9.924  0.00  0.00     0.115 C 
HETATM   22  C   UNK     0     -13.400  -2.838  -9.308  0.00  0.00     0.022 A 
HETATM   23  N   UNK     0     -13.577  -3.115  -8.010  0.00  0.00    -0.361 N 
HETATM   24  C   UNK     0     -14.462  -4.128  -7.910  0.00  0.00     0.021 A 
HETATM   25  C   UNK     0     -14.856  -4.518  -9.175  0.00  0.00    -0.031 A 
HETATM   26  C   UNK     0     -15.798  -5.634  -9.578  0.00  0.00     0.051 C 
HETATM   27  C   UNK     0     -14.190  -3.707 -10.087  0.00  0.00    -0.027 A 
HETATM   28  C   UNK     0     -15.047  -4.730  -6.644  0.00  0.00     0.115 C 
HETATM   29  H   UNK     0     -14.270  -2.299  -5.172  0.00  0.00     0.165 HD
HETATM   30  H   UNK     0     -16.011   0.180  -6.701  0.00  0.00     0.165 HD
HETATM   31  H   UNK     0     -14.784  -0.199  -8.577  0.00  0.00     0.165 HD
HETATM   32  H   UNK     0     -13.045  -2.627  -7.152  0.00  0.00     0.165 HD
ENDROOT
BRANCH   6  33
HETATM   33  C   UNK     0     -18.941  -2.496  -4.331  0.00  0.00     0.051 C 
BRANCH  33  34
HETATM   34  C   UNK     0     -19.485  -1.229  -4.946  0.00  0.00     0.114 C 
BRANCH  34  35
HETATM   35  C   UNK     0     -20.207  -0.485  -3.874  0.00  0.00     0.139 C 
HETATM   36  O   UNK     0     -21.180  -1.024  -3.270  0.00  0.00    -0.650 OA
BRANCH  35  37
HETATM   37  O   UNK     0     -19.858   0.803  -3.490  0.00  0.00    -0.776 OA
HETATM   38  H   UNK     0     -19.117   0.983  -2.832  0.00  0.00     0.167 HD
ENDBRANCH  35  37
ENDBRANCH  34  35
ENDBRANCH  33  34
ENDBRANCH   6  33
BRANCH  27  39
HETATM   39  C   UNK     0     -14.307  -3.878 -11.560  0.00  0.00     0.051 C 
BRANCH  39  40
HETATM   40  C   UNK     0     -13.471  -4.887 -12.211  0.00  0.00     0.114 C 
BRANCH  40  41
HETATM   41  C   UNK     0     -12.603  -4.569 -13.322  0.00  0.00     0.139 C 
HETATM   42  O   UNK     0     -11.614  -5.247 -13.633  0.00  0.00    -0.650 OA
BRANCH  41  43
HETATM   43  O   UNK     0     -12.885  -3.418 -14.112  0.00  0.00    -0.776 OA
HETATM   44  H   UNK     0     -13.581  -2.798 -13.715  0.00  0.00     0.167 HD
ENDBRANCH  41  43
ENDBRANCH  40  41
ENDBRANCH  39  40
ENDBRANCH  27  39
BRANCH  11  45
HETATM   45  C   UNK     0     -13.408   3.377  -4.357  0.00  0.00     0.051 C 
BRANCH  45  46
HETATM   46  C   UNK     0     -14.129   4.655  -4.124  0.00  0.00     0.114 C 
BRANCH  46  47
HETATM   47  C   UNK     0     -14.185   5.374  -5.429  0.00  0.00     0.139 C 
HETATM   48  O   UNK     0     -13.120   5.680  -5.983  0.00  0.00    -0.650 OA
BRANCH  47  49
HETATM   49  O   UNK     0     -15.389   5.693  -6.004  0.00  0.00    -0.776 OA
HETATM   50  H   UNK     0     -15.979   6.454  -5.648  0.00  0.00     0.167 HD
ENDBRANCH  47  49
ENDBRANCH  46  47
ENDBRANCH  45  46
ENDBRANCH  11  45
BRANCH  18  51
HETATM   51  C   UNK     0     -10.236   0.316  -9.773  0.00  0.00     0.051 C 
BRANCH  51  52
HETATM   52  C   UNK     0     -10.365   0.585 -11.265  0.00  0.00     0.114 C 
BRANCH  52  53
HETATM   53  C   UNK     0     -10.020   1.980 -11.603  0.00  0.00     0.139 C 
HETATM   54  O   UNK     0     -10.917   2.793 -11.878  0.00  0.00    -0.650 OA
BRANCH  53  55
HETATM   55  O   UNK     0      -8.703   2.370 -11.617  0.00  0.00    -0.776 OA
HETATM   56  H   UNK     0      -8.069   2.259 -12.372  0.00  0.00     0.167 HD
ENDBRANCH  53  55
ENDBRANCH  52  53
ENDBRANCH  51  52
ENDBRANCH  18  51
TORSDOF 16
ENDMDL
MODEL 10
REMARK VINA RESULT:      -9.0     31.171     34.417
REMARK  16 active torsions:
REMARK  status: ('A' for Active; 'I' for Inactive)
REMARK    1  A    between atoms: C_6  and  C_7 
REMARK    2  A    between atoms: C_7  and  C_8 
REMARK    3  A    between atoms: C_8  and  C_9 
REMARK    4  A    between atoms: C_9  and  O_11 
REMARK    5  A    between atoms: C_16  and  C_17 
REMARK    6  A    between atoms: C_17  and  C_18 
REMARK    7  A    between atoms: C_18  and  C_19 
REMARK    8  A    between atoms: C_19  and  O_21 
REMARK    9  A    between atoms: C_28  and  C_29 
REMARK   10  A    between atoms: C_29  and  C_30 
REMARK   11  A    between atoms: C_30  and  C_31 
REMARK   12  A    between atoms: C_31  and  O_33 
REMARK   13  A    between atoms: C_42  and  C_43 
REMARK   14  A    between atoms: C_43  and  C_44 
REMARK   15  A    between atoms: C_44  and  C_45 
REMARK   16  A    between atoms: C_45  and  O_47 
ROOT
HETATM    1  C   UNK     0      -8.883   3.002 -12.172  0.00  0.00     0.051 C 
HETATM    2  C   UNK     0      -9.626   1.682 -12.175  0.00  0.00    -0.031 A 
HETATM    3  C   UNK     0      -9.976   0.867 -11.110  0.00  0.00     0.021 A 
HETATM    4  N   UNK     0     -10.606  -0.234 -11.585  0.00  0.00    -0.361 N 
HETATM    5  C   UNK     0     -10.672  -0.134 -12.929  0.00  0.00     0.022 A 
HETATM    6  C   UNK     0     -10.066   1.051 -13.332  0.00  0.00    -0.027 A 
HETATM    7  C   UNK     0     -11.345  -1.033 -13.918  0.00  0.00     0.115 C 
HETATM    8  C   UNK     0     -12.723  -1.550 -13.542  0.00  0.00     0.021 A 
HETATM    9  N   UNK     0     -13.696  -0.920 -12.865  0.00  0.00    -0.361 N 
HETATM   10  C   UNK     0     -14.710  -1.792 -12.682  0.00  0.00     0.022 A 
HETATM   11  C   UNK     0     -14.386  -3.013 -13.264  0.00  0.00    -0.027 A 
HETATM   12  C   UNK     0     -13.135  -2.868 -13.809  0.00  0.00    -0.031 A 
HETATM   13  C   UNK     0     -12.375  -3.942 -14.553  0.00  0.00     0.051 C 
HETATM   14  C   UNK     0     -15.998  -1.526 -11.907  0.00  0.00     0.115 C 
HETATM   15  C   UNK     0     -15.776  -1.187 -10.442  0.00  0.00     0.021 A 
HETATM   16  N   UNK     0     -15.052  -0.172  -9.933  0.00  0.00    -0.361 N 
HETATM   17  C   UNK     0     -15.047  -0.261  -8.601  0.00  0.00     0.022 A 
HETATM   18  C   UNK     0     -15.813  -1.382  -8.223  0.00  0.00    -0.027 A 
HETATM   19  C   UNK     0     -16.265  -1.953  -9.385  0.00  0.00    -0.031 A 
HETATM   20  C   UNK     0     -17.164  -3.174  -9.430  0.00  0.00     0.051 C 
HETATM   21  C   UNK     0     -14.329   0.584  -7.574  0.00  0.00     0.115 C 
HETATM   22  C   UNK     0     -12.976   1.141  -7.951  0.00  0.00     0.022 A 
HETATM   23  N   UNK     0     -11.990   0.538  -8.628  0.00  0.00    -0.361 N 
HETATM   24  C   UNK     0     -11.023   1.447  -8.867  0.00  0.00     0.021 A 
HETATM   25  C   UNK     0     -11.392   2.662  -8.322  0.00  0.00    -0.031 A 
HETATM   26  C   UNK     0     -10.624   3.967  -8.296  0.00  0.00     0.051 C 
HETATM   27  C   UNK     0     -12.638   2.491  -7.730  0.00  0.00    -0.027 A 
HETATM   28  C   UNK     0      -9.752   1.261  -9.678  0.00  0.00     0.115 C 
HETATM   29  H   UNK     0     -10.963  -1.092 -10.971  0.00  0.00     0.165 HD
HETATM   30  H   UNK     0     -13.691   0.155 -12.559  0.00  0.00     0.165 HD
HETATM   31  H   UNK     0     -14.574   0.652 -10.524  0.00  0.00     0.165 HD
HETATM   32  H   UNK     0     -11.947  -0.547  -8.906  0.00  0.00     0.165 HD
ENDROOT
BRANCH   6  33
HETATM   33  C   UNK     0      -9.873   1.621 -14.714  0.00  0.00     0.051 C 
BRANCH  33  34
HETATM   34  C   UNK     0     -10.991   1.187 -15.633  0.00  0.00     0.114 C 
BRANCH  34  35
HETATM   35  C   UNK     0     -10.628   1.618 -17.013  0.00  0.00     0.139 C 
HETATM   36  O   UNK     0      -9.769   0.968 -17.678  0.00  0.00    -0.650 OA
BRANCH  35  37
HETATM   37  O   UNK     0     -11.200   2.725 -17.627  0.00  0.00    -0.776 OA
HETATM   38  H   UNK     0     -11.082   3.658 -17.265  0.00  0.00     0.167 HD
ENDBRANCH  35  37
ENDBRANCH  34  35
ENDBRANCH  33  34
ENDBRANCH   6  33
BRANCH  27  39
HETATM   39  C   UNK     0     -13.331   3.569  -6.974  0.00  0.00     0.051 C 
BRANCH  39  40
HETATM   40  C   UNK     0     -14.580   4.104  -7.517  0.00  0.00     0.114 C 
BRANCH  40  41
HETATM   41  C   UNK     0     -14.976   5.481  -7.324  0.00  0.00     0.139 C 
HETATM   42  O   UNK     0     -16.106   5.821  -6.949  0.00  0.00    -0.650 OA
BRANCH  41  43
HETATM   43  O   UNK     0     -14.029   6.515  -7.573  0.00  0.00    -0.776 OA
HETATM   44  H   UNK     0     -14.393   7.453  -7.460  0.00  0.00     0.167 HD
ENDBRANCH  41  43
ENDBRANCH  40  41
ENDBRANCH  39  40
ENDBRANCH  27  39
BRANCH  11  45
HETATM   45  C   UNK     0     -15.203  -4.276 -13.322  0.00  0.00     0.051 C 
BRANCH  45  46
HETATM   46  C   UNK     0     -15.329  -4.976 -12.018  0.00  0.00     0.114 C 
BRANCH  46  47
HETATM   47  C   UNK     0     -14.011  -5.611 -11.729  0.00  0.00     0.139 C 
HETATM   48  O   UNK     0     -13.620  -6.527 -12.465  0.00  0.00    -0.650 OA
BRANCH  47  49
HETATM   49  O   UNK     0     -13.246  -5.191 -10.669  0.00  0.00    -0.776 OA
HETATM   50  H   UNK     0     -13.356  -5.586  -9.728  0.00  0.00     0.167 HD
ENDBRANCH  47  49
ENDBRANCH  46  47
ENDBRANCH  45  46
ENDBRANCH  11  45
BRANCH  18  51
HETATM   51  C   UNK     0     -16.115  -1.870  -6.830  0.00  0.00     0.051 C 
BRANCH  51  52
HETATM   52  C   UNK     0     -15.118  -2.983  -6.543  0.00  0.00     0.114 C 
BRANCH  52  53
HETATM   53  C   UNK     0     -13.898  -2.472  -5.887  0.00  0.00     0.139 C 
HETATM   54  O   UNK     0     -13.928  -2.142  -4.691  0.00  0.00    -0.650 OA
BRANCH  53  55
HETATM   55  O   UNK     0     -12.734  -2.362  -6.608  0.00  0.00    -0.776 OA
HETATM   56  H   UNK     0     -11.813  -2.452  -6.248  0.00  0.00     0.167 HD
ENDBRANCH  53  55
ENDBRANCH  52  53
ENDBRANCH  51  52
ENDBRANCH  18  51
TORSDOF 16
ENDMDL
MODEL 11
REMARK VINA RESULT:      -9.0      2.708      9.456
REMARK  16 active torsions:
REMARK  status: ('A' for Active; 'I' for Inactive)
REMARK    1  A    between atoms: C_6  and  C_7 
REMARK    2  A    between atoms: C_7  and  C_8 
REMARK    3  A    between atoms: C_8  and  C_9 
REMARK    4  A    between atoms: C_9  and  O_11 
REMARK    5  A    between atoms: C_16  and  C_17 
REMARK    6  A    between atoms: C_17  and  C_18 
REMARK    7  A    between atoms: C_18  and  C_19 
REMARK    8  A    between atoms: C_19  and  O_21 
REMARK    9  A    between atoms: C_28  and  C_29 
REMARK   10  A    between atoms: C_29  and  C_30 
REMARK   11  A    between atoms: C_30  and  C_31 
REMARK   12  A    between atoms: C_31  and  O_33 
REMARK   13  A    between atoms: C_42  and  C_43 
REMARK   14  A    between atoms: C_43  and  C_44 
REMARK   15  A    between atoms: C_44  and  C_45 
REMARK   16  A    between atoms: C_45  and  O_47 
ROOT
HETATM    1  C   UNK     0      14.839   0.065  10.730  0.00  0.00     0.051 C 
HETATM    2  C   UNK     0      13.748  -0.574  11.564  0.00  0.00    -0.031 A 
HETATM    3  C   UNK     0      12.452  -0.914  11.207  0.00  0.00     0.021 A 
HETATM    4  N   UNK     0      11.820  -1.434  12.286  0.00  0.00    -0.361 N 
HETATM    5  C   UNK     0      12.686  -1.441  13.319  0.00  0.00     0.022 A 
HETATM    6  C   UNK     0      13.901  -0.908  12.904  0.00  0.00    -0.027 A 
HETATM    7  C   UNK     0      12.516  -1.994  14.700  0.00  0.00     0.115 C 
HETATM    8  C   UNK     0      11.833  -3.346  14.813  0.00  0.00     0.021 A 
HETATM    9  N   UNK     0      11.914  -4.396  13.982  0.00  0.00    -0.361 N 
HETATM   10  C   UNK     0      11.067  -5.349  14.426  0.00  0.00     0.022 A 
HETATM   11  C   UNK     0      10.431  -4.904  15.582  0.00  0.00    -0.027 A 
HETATM   12  C   UNK     0      10.909  -3.643  15.831  0.00  0.00    -0.031 A 
HETATM   13  C   UNK     0      10.501  -2.768  16.995  0.00  0.00     0.051 C 
HETATM   14  C   UNK     0      10.786  -6.690  13.754  0.00  0.00     0.115 C 
HETATM   15  C   UNK     0      10.208  -6.567  12.353  0.00  0.00     0.021 A 
HETATM   16  N   UNK     0      10.755  -5.948  11.290  0.00  0.00    -0.361 N 
HETATM   17  C   UNK     0       9.902  -6.002  10.265  0.00  0.00     0.022 A 
HETATM   18  C   UNK     0       8.748  -6.698  10.676  0.00  0.00    -0.027 A 
HETATM   19  C   UNK     0       8.952  -7.047  11.986  0.00  0.00    -0.031 A 
HETATM   20  C   UNK     0       7.961  -7.848  12.811  0.00  0.00     0.051 C 
HETATM   21  C   UNK     0      10.007  -5.401   8.881  0.00  0.00     0.115 C 
HETATM   22  C   UNK     0      10.723  -4.078   8.748  0.00  0.00     0.022 A 
HETATM   23  N   UNK     0      10.664  -3.017   9.562  0.00  0.00    -0.361 N 
HETATM   24  C   UNK     0      11.572  -2.112   9.144  0.00  0.00     0.021 A 
HETATM   25  C   UNK     0      12.224  -2.598   8.027  0.00  0.00    -0.031 A 
HETATM   26  C   UNK     0      13.290  -1.933   7.181  0.00  0.00     0.051 C 
HETATM   27  C   UNK     0      11.697  -3.855   7.754  0.00  0.00    -0.027 A 
HETATM   28  C   UNK     0      11.939  -0.792   9.800  0.00  0.00     0.115 C 
HETATM   29  H   UNK     0      10.753  -1.755  12.319  0.00  0.00     0.165 HD
HETATM   30  H   UNK     0      12.604  -4.487  13.108  0.00  0.00     0.165 HD
HETATM   31  H   UNK     0      11.784  -5.505  11.248  0.00  0.00     0.165 HD
HETATM   32  H   UNK     0       9.951  -2.878  10.416  0.00  0.00     0.165 HD
ENDROOT
BRANCH   6  33
HETATM   33  C   UNK     0      15.180  -0.691  13.673  0.00  0.00     0.051 C 
BRANCH  33  34
HETATM   34  C   UNK     0      15.916  -1.996  13.865  0.00  0.00     0.114 C 
BRANCH  34  35
HETATM   35  C   UNK     0      16.531  -2.358  12.556  0.00  0.00     0.139 C 
HETATM   36  O   UNK     0      17.540  -1.724  12.129  0.00  0.00    -0.650 OA
BRANCH  35  37
HETATM   37  O   UNK     0      16.044  -3.386  11.758  0.00  0.00    -0.776 OA
HETATM   38  H   UNK     0      15.546  -3.207  10.901  0.00  0.00     0.167 HD
ENDBRANCH  35  37
ENDBRANCH  34  35
ENDBRANCH  33  34
ENDBRANCH   6  33
BRANCH  27  39
HETATM   39  C   UNK     0      12.104  -4.665   6.573  0.00  0.00     0.051 C 
BRANCH  39  40
HETATM   40  C   UNK     0      11.430  -4.420   5.298  0.00  0.00     0.114 C 
BRANCH  40  41
HETATM   41  C   UNK     0      12.129  -4.476   4.034  0.00  0.00     0.139 C 
HETATM   42  O   UNK     0      13.322  -4.789   3.926  0.00  0.00    -0.650 OA
BRANCH  41  43
HETATM   43  O   UNK     0      11.423  -4.155   2.840  0.00  0.00    -0.776 OA
HETATM   44  H   UNK     0      11.569  -4.807   2.079  0.00  0.00     0.167 HD
ENDBRANCH  41  43
ENDBRANCH  40  41
ENDBRANCH  39  40
ENDBRANCH  27  39
BRANCH  11  45
HETATM   45  C   UNK     0       9.416  -5.619  16.432  0.00  0.00     0.051 C 
BRANCH  45  46
HETATM   46  C   UNK     0       9.989  -6.687  17.291  0.00  0.00     0.114 C 
BRANCH  46  47
HETATM   47  C   UNK     0       9.324  -7.965  16.908  0.00  0.00     0.139 C 
HETATM   48  O   UNK     0      10.033  -8.953  16.668  0.00  0.00    -0.650 OA
BRANCH  47  49
HETATM   49  O   UNK     0       7.957  -8.048  16.822  0.00  0.00    -0.776 OA
HETATM   50  H   UNK     0       7.457  -8.937  16.941  0.00  0.00     0.167 HD
ENDBRANCH  47  49
ENDBRANCH  46  47
ENDBRANCH  45  46
ENDBRANCH  11  45
BRANCH  18  51
HETATM   51  C   UNK     0       7.526  -7.030   9.860  0.00  0.00     0.051 C 
BRANCH  51  52
HETATM   52  C   UNK     0       7.640  -8.504   9.503  0.00  0.00     0.114 C 
BRANCH  52  53
HETATM   53  C   UNK     0       8.605  -8.732   8.410  0.00  0.00     0.139 C 
HETATM   54  O   UNK     0       9.616  -9.425   8.607  0.00  0.00    -0.650 OA
BRANCH  53  55
HETATM   55  O   UNK     0       8.380  -8.170   7.176  0.00  0.00    -0.776 OA
HETATM   56  H   UNK     0       7.544  -7.722   6.883  0.00  0.00     0.167 HD
ENDBRANCH  53  55
ENDBRANCH  52  53
ENDBRANCH  51  52
ENDBRANCH  18  51
TORSDOF 16
ENDMDL
MODEL 12
REMARK VINA RESULT:      -8.9      2.765      7.440
REMARK  16 active torsions:
REMARK  status: ('A' for Active; 'I' for Inactive)
REMARK    1  A    between atoms: C_6  and  C_7 
REMARK    2  A    between atoms: C_7  and  C_8 
REMARK    3  A    between atoms: C_8  and  C_9 
REMARK    4  A    between atoms: C_9  and  O_11 
REMARK    5  A    between atoms: C_16  and  C_17 
REMARK    6  A    between atoms: C_17  and  C_18 
REMARK    7  A    between atoms: C_18  and  C_19 
REMARK    8  A    between atoms: C_19  and  O_21 
REMARK    9  A    between atoms: C_28  and  C_29 
REMARK   10  A    between atoms: C_29  and  C_30 
REMARK   11  A    between atoms: C_30  and  C_31 
REMARK   12  A    between atoms: C_31  and  O_33 
REMARK   13  A    between atoms: C_42  and  C_43 
REMARK   14  A    between atoms: C_43  and  C_44 
REMARK   15  A    between atoms: C_44  and  C_45 
REMARK   16  A    between atoms: C_45  and  O_47 
ROOT
HETATM    1  C   UNK     0      14.087  -0.594   5.068  0.00  0.00     0.051 C 
HETATM    2  C   UNK     0      13.761  -1.889   5.782  0.00  0.00    -0.031 A 
HETATM    3  C   UNK     0      14.331  -2.433   6.922  0.00  0.00     0.021 A 
HETATM    4  N   UNK     0      13.745  -3.625   7.183  0.00  0.00    -0.361 N 
HETATM    5  C   UNK     0      12.807  -3.849   6.239  0.00  0.00     0.022 A 
HETATM    6  C   UNK     0      12.793  -2.784   5.345  0.00  0.00    -0.027 A 
HETATM    7  C   UNK     0      11.820  -4.969   6.124  0.00  0.00     0.115 C 
HETATM    8  C   UNK     0      11.131  -5.404   7.405  0.00  0.00     0.021 A 
HETATM    9  N   UNK     0      10.740  -4.648   8.443  0.00  0.00    -0.361 N 
HETATM   10  C   UNK     0      10.256  -5.467   9.400  0.00  0.00     0.022 A 
HETATM   11  C   UNK     0      10.328  -6.787   8.963  0.00  0.00    -0.027 A 
HETATM   12  C   UNK     0      10.878  -6.754   7.707  0.00  0.00    -0.031 A 
HETATM   13  C   UNK     0      11.143  -7.962   6.838  0.00  0.00     0.051 C 
HETATM   14  C   UNK     0       9.757  -5.046  10.780  0.00  0.00     0.115 C 
HETATM   15  C   UNK     0      10.814  -4.365  11.635  0.00  0.00     0.021 A 
HETATM   16  N   UNK     0      11.506  -3.247  11.349  0.00  0.00    -0.361 N 
HETATM   17  C   UNK     0      12.389  -3.016  12.323  0.00  0.00     0.022 A 
HETATM   18  C   UNK     0      12.258  -4.027  13.296  0.00  0.00    -0.027 A 
HETATM   19  C   UNK     0      11.268  -4.865  12.853  0.00  0.00    -0.031 A 
HETATM   20  C   UNK     0      10.780  -6.077  13.626  0.00  0.00     0.051 C 
HETATM   21  C   UNK     0      13.443  -1.939  12.445  0.00  0.00     0.115 C 
HETATM   22  C   UNK     0      14.107  -1.466  11.173  0.00  0.00     0.022 A 
HETATM   23  N   UNK     0      14.503  -2.195  10.122  0.00  0.00    -0.361 N 
HETATM   24  C   UNK     0      14.909  -1.353   9.151  0.00  0.00     0.021 A 
HETATM   25  C   UNK     0      14.781  -0.050   9.591  0.00  0.00    -0.031 A 
HETATM   26  C   UNK     0      15.143   1.237   8.878  0.00  0.00     0.051 C 
HETATM   27  C   UNK     0      14.269  -0.096  10.883  0.00  0.00    -0.027 A 
HETATM   28  C   UNK     0      15.358  -1.706   7.743  0.00  0.00     0.115 C 
HETATM   29  H   UNK     0      14.025  -4.319   8.010  0.00  0.00     0.165 HD
HETATM   30  H   UNK     0      10.758  -3.531   8.483  0.00  0.00     0.165 HD
HETATM   31  H   UNK     0      11.337  -2.579  10.464  0.00  0.00     0.165 HD
HETATM   32  H   UNK     0      14.540  -3.315  10.072  0.00  0.00     0.165 HD
ENDROOT
BRANCH   6  33
HETATM   33  C   UNK     0      11.941  -2.556   4.122  0.00  0.00     0.051 C 
BRANCH  33  34
HETATM   34  C   UNK     0      12.436  -3.388   2.963  0.00  0.00     0.114 C 
BRANCH  34  35
HETATM   35  C   UNK     0      11.869  -2.800   1.716  0.00  0.00     0.139 C 
HETATM   36  O   UNK     0      11.823  -3.483   0.652  0.00  0.00    -0.650 OA
BRANCH  35  37
HETATM   37  O   UNK     0      11.371  -1.504   1.658  0.00  0.00    -0.776 OA
HETATM   38  H   UNK     0      10.632  -1.187   2.266  0.00  0.00     0.167 HD
ENDBRANCH  35  37
ENDBRANCH  34  35
ENDBRANCH  33  34
ENDBRANCH   6  33
BRANCH  27  39
HETATM   39  C   UNK     0      14.060   1.119  11.715  0.00  0.00     0.051 C 
BRANCH  39  40
HETATM   40  C   UNK     0      12.744   1.757  11.694  0.00  0.00     0.114 C 
BRANCH  40  41
HETATM   41  C   UNK     0      11.535   1.020  11.404  0.00  0.00     0.139 C 
HETATM   42  O   UNK     0      11.082   0.872  10.261  0.00  0.00    -0.650 OA
BRANCH  41  43
HETATM   43  O   UNK     0      10.814   0.426  12.479  0.00  0.00    -0.776 OA
HETATM   44  H   UNK     0      10.290   1.082  13.046  0.00  0.00     0.167 HD
ENDBRANCH  41  43
ENDBRANCH  40  41
ENDBRANCH  39  40
ENDBRANCH  27  39
BRANCH  11  45
HETATM   45  C   UNK     0       9.901  -8.040   9.679  0.00  0.00     0.051 C 
BRANCH  45  46
HETATM   46  C   UNK     0       8.576  -8.559   9.255  0.00  0.00     0.114 C 
BRANCH  46  47
HETATM   47  C   UNK     0       7.548  -7.894  10.106  0.00  0.00     0.139 C 
HETATM   48  O   UNK     0       7.649  -7.988  11.337  0.00  0.00    -0.650 OA
BRANCH  47  49
HETATM   49  O   UNK     0       6.512  -7.195   9.540  0.00  0.00    -0.776 OA
HETATM   50  H   UNK     0       6.299  -7.253   8.538  0.00  0.00     0.167 HD
ENDBRANCH  47  49
ENDBRANCH  46  47
ENDBRANCH  45  46
ENDBRANCH  11  45
BRANCH  18  51
HETATM   51  C   UNK     0      13.021  -4.175  14.587  0.00  0.00     0.051 C 
BRANCH  51  52
HETATM   52  C   UNK     0      14.117  -5.196  14.320  0.00  0.00     0.114 C 
BRANCH  52  53
HETATM   53  C   UNK     0      15.463  -4.615  14.489  0.00  0.00     0.139 C 
HETATM   54  O   UNK     0      15.736  -3.520  13.973  0.00  0.00    -0.650 OA
BRANCH  53  55
HETATM   55  O   UNK     0      16.409  -5.294  15.217  0.00  0.00    -0.776 OA
HETATM   56  H   UNK     0      17.303  -5.578  14.892  0.00  0.00     0.167 HD
ENDBRANCH  53  55
ENDBRANCH  52  53
ENDBRANCH  51  52
ENDBRANCH  18  51
TORSDOF 16
ENDMDL
MODEL 13
REMARK VINA RESULT:      -8.9     31.398     33.827
REMARK  16 active torsions:
REMARK  status: ('A' for Active; 'I' for Inactive)
REMARK    1  A    between atoms: C_6  and  C_7 
REMARK    2  A    between atoms: C_7  and  C_8 
REMARK    3  A    between atoms: C_8  and  C_9 
REMARK    4  A    between atoms: C_9  and  O_11 
REMARK    5  A    between atoms: C_16  and  C_17 
REMARK    6  A    between atoms: C_17  and  C_18 
REMARK    7  A    between atoms: C_18  and  C_19 
REMARK    8  A    between atoms: C_19  and  O_21 
REMARK    9  A    between atoms: C_28  and  C_29 
REMARK   10  A    between atoms: C_29  and  C_30 
REMARK   11  A    between atoms: C_30  and  C_31 
REMARK   12  A    between atoms: C_31  and  O_33 
REMARK   13  A    between atoms: C_42  and  C_43 
REMARK   14  A    between atoms: C_43  and  C_44 
REMARK   15  A    between atoms: C_44  and  C_45 
REMARK   16  A    between atoms: C_45  and  O_47 
ROOT
HETATM    1  C   UNK     0     -17.638  -8.101  -4.138  0.00  0.00     0.051 C 
HETATM    2  C   UNK     0     -17.439  -7.509  -5.518  0.00  0.00    -0.031 A 
HETATM    3  C   UNK     0     -17.769  -6.248  -5.991  0.00  0.00     0.021 A 
HETATM    4  N   UNK     0     -17.435  -6.167  -7.300  0.00  0.00    -0.361 N 
HETATM    5  C   UNK     0     -16.892  -7.345  -7.671  0.00  0.00     0.022 A 
HETATM    6  C   UNK     0     -16.881  -8.208  -6.580  0.00  0.00    -0.027 A 
HETATM    7  C   UNK     0     -16.278  -7.741  -8.977  0.00  0.00     0.115 C 
HETATM    8  C   UNK     0     -15.373  -6.720  -9.643  0.00  0.00     0.021 A 
HETATM    9  N   UNK     0     -14.530  -5.848  -9.067  0.00  0.00    -0.361 N 
HETATM   10  C   UNK     0     -14.001  -5.073 -10.037  0.00  0.00     0.022 A 
HETATM   11  C   UNK     0     -14.510  -5.462 -11.273  0.00  0.00    -0.027 A 
HETATM   12  C   UNK     0     -15.374  -6.499 -11.032  0.00  0.00    -0.031 A 
HETATM   13  C   UNK     0     -16.160  -7.246 -12.086  0.00  0.00     0.051 C 
HETATM   14  C   UNK     0     -13.041  -3.905  -9.834  0.00  0.00     0.115 C 
HETATM   15  C   UNK     0     -13.611  -2.778  -8.987  0.00  0.00     0.021 A 
HETATM   16  N   UNK     0     -14.068  -2.852  -7.723  0.00  0.00    -0.361 N 
HETATM   17  C   UNK     0     -14.550  -1.661  -7.361  0.00  0.00     0.022 A 
HETATM   18  C   UNK     0     -14.390  -0.766  -8.437  0.00  0.00    -0.027 A 
HETATM   19  C   UNK     0     -13.800  -1.478  -9.449  0.00  0.00    -0.031 A 
HETATM   20  C   UNK     0     -13.414  -0.878 -10.789  0.00  0.00     0.051 C 
HETATM   21  C   UNK     0     -15.235  -1.238  -6.081  0.00  0.00     0.115 C 
HETATM   22  C   UNK     0     -16.103  -2.259  -5.385  0.00  0.00     0.022 A 
HETATM   23  N   UNK     0     -16.948  -3.142  -5.933  0.00  0.00    -0.361 N 
HETATM   24  C   UNK     0     -17.404  -3.954  -4.957  0.00  0.00     0.021 A 
HETATM   25  C   UNK     0     -16.846  -3.578  -3.750  0.00  0.00    -0.031 A 
HETATM   26  C   UNK     0     -17.081  -4.157  -2.370  0.00  0.00     0.051 C 
HETATM   27  C   UNK     0     -16.011  -2.495  -3.998  0.00  0.00    -0.027 A 
HETATM   28  C   UNK     0     -18.310  -5.164  -5.103  0.00  0.00     0.115 C 
HETATM   29  H   UNK     0     -17.622  -5.291  -7.964  0.00  0.00     0.165 HD
HETATM   30  H   UNK     0     -14.269  -5.810  -7.981  0.00  0.00     0.165 HD
HETATM   31  H   UNK     0     -14.007  -3.750  -7.055  0.00  0.00     0.165 HD
HETATM   32  H   UNK     0     -17.265  -3.173  -7.008  0.00  0.00     0.165 HD
ENDROOT
BRANCH   6  33
HETATM   33  C   UNK     0     -16.391  -9.630  -6.474  0.00  0.00     0.051 C 
BRANCH  33  34
HETATM   34  C   UNK     0     -17.475 -10.602  -6.874  0.00  0.00     0.114 C 
BRANCH  34  35
HETATM   35  C   UNK     0     -17.085 -11.189  -8.188  0.00  0.00     0.139 C 
HETATM   36  O   UNK     0     -16.091 -11.967  -8.269  0.00  0.00    -0.650 OA
BRANCH  35  37
HETATM   37  O   UNK     0     -17.777 -10.922  -9.363  0.00  0.00    -0.776 OA
HETATM   38  H   UNK     0     -17.310 -10.839 -10.252  0.00  0.00     0.167 HD
ENDBRANCH  35  37
ENDBRANCH  34  35
ENDBRANCH  33  34
ENDBRANCH   6  33
BRANCH  27  39
HETATM   39  C   UNK     0     -15.286  -1.767  -2.921  0.00  0.00     0.051 C 
BRANCH  39  40
HETATM   40  C   UNK     0     -15.845  -0.505  -2.439  0.00  0.00     0.114 C 
BRANCH  40  41
HETATM   41  C   UNK     0     -15.214   0.769  -2.705  0.00  0.00     0.139 C 
HETATM   42  O   UNK     0     -14.007   0.984  -2.528  0.00  0.00    -0.650 OA
BRANCH  41  43
HETATM   43  O   UNK     0     -16.008   1.844  -3.196  0.00  0.00    -0.776 OA
HETATM   44  H   UNK     0     -15.569   2.754  -3.127  0.00  0.00     0.167 HD
ENDBRANCH  41  43
ENDBRANCH  40  41
ENDBRANCH  39  40
ENDBRANCH  27  39
BRANCH  11  45
HETATM   45  C   UNK     0     -14.208  -4.899 -12.636  0.00  0.00     0.051 C 
BRANCH  45  46
HETATM   46  C   UNK     0     -13.191  -5.668 -13.398  0.00  0.00     0.114 C 
BRANCH  46  47
HETATM   47  C   UNK     0     -12.180  -4.692 -13.896  0.00  0.00     0.139 C 
HETATM   48  O   UNK     0     -12.579  -3.633 -14.401  0.00  0.00    -0.650 OA
BRANCH  47  49
HETATM   49  O   UNK     0     -10.838  -4.959 -13.800  0.00  0.00    -0.776 OA
HETATM   50  H   UNK     0     -10.482  -5.798 -13.328  0.00  0.00     0.167 HD
ENDBRANCH  47  49
ENDBRANCH  46  47
ENDBRANCH  45  46
ENDBRANCH  11  45
BRANCH  18  51
HETATM   51  C   UNK     0     -14.760   0.694  -8.491  0.00  0.00     0.051 C 
BRANCH  51  52
HETATM   52  C   UNK     0     -13.780   1.416  -7.578  0.00  0.00     0.114 C 
BRANCH  52  53
HETATM   53  C   UNK     0     -14.374   2.628  -6.983  0.00  0.00     0.139 C 
HETATM   54  O   UNK     0     -14.760   3.555  -7.714  0.00  0.00    -0.650 OA
BRANCH  53  55
HETATM   55  O   UNK     0     -14.494   2.727  -5.618  0.00  0.00    -0.776 OA
HETATM   56  H   UNK     0     -14.039   2.152  -4.949  0.00  0.00     0.167 HD
ENDBRANCH  53  55
ENDBRANCH  52  53
ENDBRANCH  51  52
ENDBRANCH  18  51
TORSDOF 16
ENDMDL
MODEL 14
REMARK VINA RESULT:      -8.9     31.568     34.460
REMARK  16 active torsions:
REMARK  status: ('A' for Active; 'I' for Inactive)
REMARK    1  A    between atoms: C_6  and  C_7 
REMARK    2  A    between atoms: C_7  and  C_8 
REMARK    3  A    between atoms: C_8  and  C_9 
REMARK    4  A    between atoms: C_9  and  O_11 
REMARK    5  A    between atoms: C_16  and  C_17 
REMARK    6  A    between atoms: C_17  and  C_18 
REMARK    7  A    between atoms: C_18  and  C_19 
REMARK    8  A    between atoms: C_19  and  O_21 
REMARK    9  A    between atoms: C_28  and  C_29 
REMARK   10  A    between atoms: C_29  and  C_30 
REMARK   11  A    between atoms: C_30  and  C_31 
REMARK   12  A    between atoms: C_31  and  O_33 
REMARK   13  A    between atoms: C_42  and  C_43 
REMARK   14  A    between atoms: C_43  and  C_44 
REMARK   15  A    between atoms: C_44  and  C_45 
REMARK   16  A    between atoms: C_45  and  O_47 
ROOT
HETATM    1  C   UNK     0     -15.880   0.483  -5.340  0.00  0.00     0.051 C 
HETATM    2  C   UNK     0     -14.768   0.280  -6.349  0.00  0.00    -0.031 A 
HETATM    3  C   UNK     0     -14.208  -0.899  -6.817  0.00  0.00     0.021 A 
HETATM    4  N   UNK     0     -13.217  -0.601  -7.690  0.00  0.00    -0.361 N 
HETATM    5  C   UNK     0     -13.139   0.742  -7.796  0.00  0.00     0.022 A 
HETATM    6  C   UNK     0     -14.093   1.324  -6.968  0.00  0.00    -0.027 A 
HETATM    7  C   UNK     0     -12.279   1.578  -8.692  0.00  0.00     0.115 C 
HETATM    8  C   UNK     0     -12.136   1.109 -10.130  0.00  0.00     0.021 A 
HETATM    9  N   UNK     0     -13.053   0.519 -10.912  0.00  0.00    -0.361 N 
HETATM   10  C   UNK     0     -12.460   0.193 -12.080  0.00  0.00     0.022 A 
HETATM   11  C   UNK     0     -11.128   0.594 -12.054  0.00  0.00    -0.027 A 
HETATM   12  C   UNK     0     -10.917   1.172 -10.828  0.00  0.00    -0.031 A 
HETATM   13  C   UNK     0      -9.608   1.761 -10.352  0.00  0.00     0.051 C 
HETATM   14  C   UNK     0     -13.109  -0.553 -13.243  0.00  0.00     0.115 C 
HETATM   15  C   UNK     0     -13.593  -1.948 -12.885  0.00  0.00     0.021 A 
HETATM   16  N   UNK     0     -14.485  -2.291 -11.937  0.00  0.00    -0.361 N 
HETATM   17  C   UNK     0     -14.586  -3.621 -11.889  0.00  0.00     0.022 A 
HETATM   18  C   UNK     0     -13.725  -4.172 -12.860  0.00  0.00    -0.027 A 
HETATM   19  C   UNK     0     -13.110  -3.114 -13.477  0.00  0.00    -0.031 A 
HETATM   20  C   UNK     0     -12.122  -3.262 -14.620  0.00  0.00     0.051 C 
HETATM   21  C   UNK     0     -15.388  -4.502 -10.959  0.00  0.00     0.115 C 
HETATM   22  C   UNK     0     -15.576  -4.027  -9.537  0.00  0.00     0.022 A 
HETATM   23  N   UNK     0     -14.682  -3.432  -8.736  0.00  0.00    -0.361 N 
HETATM   24  C   UNK     0     -15.314  -3.047  -7.609  0.00  0.00     0.021 A 
HETATM   25  C   UNK     0     -16.644  -3.412  -7.681  0.00  0.00    -0.031 A 
HETATM   26  C   UNK     0     -17.739  -3.234  -6.650  0.00  0.00     0.051 C 
HETATM   27  C   UNK     0     -16.836  -4.041  -8.906  0.00  0.00    -0.027 A 
HETATM   28  C   UNK     0     -14.741  -2.254  -6.447  0.00  0.00     0.115 C 
HETATM   29  H   UNK     0     -12.553  -1.340  -8.195  0.00  0.00     0.165 HD
HETATM   30  H   UNK     0     -14.132   0.374 -10.661  0.00  0.00     0.165 HD
HETATM   31  H   UNK     0     -15.092  -1.578 -11.321  0.00  0.00     0.165 HD
HETATM   32  H   UNK     0     -13.586  -3.316  -8.941  0.00  0.00     0.165 HD
ENDROOT
BRANCH   6  33
HETATM   33  C   UNK     0     -14.406   2.778  -6.722  0.00  0.00     0.051 C 
BRANCH  33  34
HETATM   34  C   UNK     0     -13.475   3.358  -5.685  0.00  0.00     0.114 C 
BRANCH  34  35
HETATM   35  C   UNK     0     -12.798   4.536  -6.301  0.00  0.00     0.139 C 
HETATM   36  O   UNK     0     -13.480   5.520  -6.710  0.00  0.00    -0.650 OA
BRANCH  35  37
HETATM   37  O   UNK     0     -11.419   4.614  -6.451  0.00  0.00    -0.776 OA
HETATM   38  H   UNK     0     -10.790   4.032  -5.921  0.00  0.00     0.167 HD
ENDBRANCH  35  37
ENDBRANCH  34  35
ENDBRANCH  33  34
ENDBRANCH   6  33
BRANCH  27  39
HETATM   39  C   UNK     0     -18.136  -4.640  -9.315  0.00  0.00     0.051 C 
BRANCH  39  40
HETATM   40  C   UNK     0     -18.242  -6.098  -9.369  0.00  0.00     0.114 C 
BRANCH  40  41
HETATM   41  C   UNK     0     -17.796  -6.943  -8.285  0.00  0.00     0.139 C 
HETATM   42  O   UNK     0     -18.325  -6.955  -7.165  0.00  0.00    -0.650 OA
BRANCH  41  43
HETATM   43  O   UNK     0     -16.691  -7.816  -8.498  0.00  0.00    -0.776 OA
HETATM   44  H   UNK     0     -16.650  -8.602  -7.861  0.00  0.00     0.167 HD
ENDBRANCH  41  43
ENDBRANCH  40  41
ENDBRANCH  39  40
ENDBRANCH  27  39
BRANCH  11  45
HETATM   45  C   UNK     0     -10.080   0.453 -13.125  0.00  0.00     0.051 C 
BRANCH  45  46
HETATM   46  C   UNK     0     -10.279   1.352 -14.290  0.00  0.00     0.114 C 
BRANCH  46  47
HETATM   47  C   UNK     0      -9.143   2.318 -14.302  0.00  0.00     0.139 C 
HETATM   48  O   UNK     0      -9.357   3.479 -14.677  0.00  0.00    -0.650 OA
BRANCH  47  49
HETATM   49  O   UNK     0      -7.888   1.931 -13.907  0.00  0.00    -0.776 OA
HETATM   50  H   UNK     0      -7.203   2.599 -13.534  0.00  0.00     0.167 HD
ENDBRANCH  47  49
ENDBRANCH  46  47
ENDBRANCH  45  46
ENDBRANCH  11  45
BRANCH  18  51
HETATM   51  C   UNK     0     -13.517  -5.626 -13.194  0.00  0.00     0.051 C 
BRANCH  51  52
HETATM   52  C   UNK     0     -14.904  -6.237 -13.324  0.00  0.00     0.114 C 
BRANCH  52  53
HETATM   53  C   UNK     0     -15.064  -7.425 -12.464  0.00  0.00     0.139 C 
HETATM   54  O   UNK     0     -16.167  -7.680 -11.955  0.00  0.00    -0.650 OA
BRANCH  53  55
HETATM   55  O   UNK     0     -13.986  -8.244 -12.229  0.00  0.00    -0.776 OA
HETATM   56  H   UNK     0     -13.700  -9.010 -12.792  0.00  0.00     0.167 HD
ENDBRANCH  53  55
ENDBRANCH  52  53
ENDBRANCH  51  52
ENDBRANCH  18  51
TORSDOF 16
ENDMDL
MODEL 15
REMARK VINA RESULT:      -8.8     31.278     34.869
REMARK  16 active torsions:
REMARK  status: ('A' for Active; 'I' for Inactive)
REMARK    1  A    between atoms: C_6  and  C_7 
REMARK    2  A    between atoms: C_7  and  C_8 
REMARK    3  A    between atoms: C_8  and  C_9 
REMARK    4  A    between atoms: C_9  and  O_11 
REMARK    5  A    between atoms: C_16  and  C_17 
REMARK    6  A    between atoms: C_17  and  C_18 
REMARK    7  A    between atoms: C_18  and  C_19 
REMARK    8  A    between atoms: C_19  and  O_21 
REMARK    9  A    between atoms: C_28  and  C_29 
REMARK   10  A    between atoms: C_29  and  C_30 
REMARK   11  A    between atoms: C_30  and  C_31 
REMARK   12  A    between atoms: C_31  and  O_33 
REMARK   13  A    between atoms: C_42  and  C_43 
REMARK   14  A    between atoms: C_43  and  C_44 
REMARK   15  A    between atoms: C_44  and  C_45 
REMARK   16  A    between atoms: C_45  and  O_47 
ROOT
HETATM    1  C   UNK     0     -11.876   0.587 -12.197  0.00  0.00     0.051 C 
HETATM    2  C   UNK     0     -12.579  -0.620 -11.609  0.00  0.00    -0.031 A 
HETATM    3  C   UNK     0     -12.574  -1.093 -10.306  0.00  0.00     0.021 A 
HETATM    4  N   UNK     0     -13.319  -2.222 -10.244  0.00  0.00    -0.361 N 
HETATM    5  C   UNK     0     -13.805  -2.475 -11.476  0.00  0.00     0.022 A 
HETATM    6  C   UNK     0     -13.359  -1.494 -12.356  0.00  0.00    -0.027 A 
HETATM    7  C   UNK     0     -14.753  -3.542 -11.925  0.00  0.00     0.115 C 
HETATM    8  C   UNK     0     -15.941  -3.822 -11.022  0.00  0.00     0.021 A 
HETATM    9  N   UNK     0     -16.653  -2.956 -10.285  0.00  0.00    -0.361 N 
HETATM   10  C   UNK     0     -17.556  -3.659  -9.569  0.00  0.00     0.022 A 
HETATM   11  C   UNK     0     -17.429  -5.014  -9.860  0.00  0.00    -0.027 A 
HETATM   12  C   UNK     0     -16.413  -5.124 -10.775  0.00  0.00    -0.031 A 
HETATM   13  C   UNK     0     -15.923  -6.418 -11.387  0.00  0.00     0.051 C 
HETATM   14  C   UNK     0     -18.535  -3.090  -8.546  0.00  0.00     0.115 C 
HETATM   15  C   UNK     0     -17.865  -2.398  -7.370  0.00  0.00     0.021 A 
HETATM   16  N   UNK     0     -17.020  -1.350  -7.407  0.00  0.00    -0.361 N 
HETATM   17  C   UNK     0     -16.596  -1.085  -6.170  0.00  0.00     0.022 A 
HETATM   18  C   UNK     0     -17.201  -1.997  -5.282  0.00  0.00    -0.027 A 
HETATM   19  C   UNK     0     -17.994  -2.813  -6.047  0.00  0.00    -0.031 A 
HETATM   20  C   UNK     0     -18.860  -3.922  -5.478  0.00  0.00     0.051 C 
HETATM   21  C   UNK     0     -15.593  -0.063  -5.684  0.00  0.00     0.115 C 
HETATM   22  C   UNK     0     -14.429   0.258  -6.592  0.00  0.00     0.022 A 
HETATM   23  N   UNK     0     -13.704  -0.583  -7.341  0.00  0.00    -0.361 N 
HETATM   24  C   UNK     0     -12.864   0.145  -8.104  0.00  0.00     0.021 A 
HETATM   25  C   UNK     0     -13.045   1.488  -7.832  0.00  0.00    -0.031 A 
HETATM   26  C   UNK     0     -12.311   2.683  -8.402  0.00  0.00     0.051 C 
HETATM   27  C   UNK     0     -14.042   1.585  -6.867  0.00  0.00    -0.027 A 
HETATM   28  C   UNK     0     -11.912  -0.355  -9.177  0.00  0.00     0.115 C 
HETATM   29  H   UNK     0     -13.463  -2.855  -9.337  0.00  0.00     0.165 HD
HETATM   30  H   UNK     0     -16.555  -1.843 -10.305  0.00  0.00     0.165 HD
HETATM   31  H   UNK     0     -16.754  -0.755  -8.319  0.00  0.00     0.165 HD
HETATM   32  H   UNK     0     -13.749  -1.703  -7.307  0.00  0.00     0.165 HD
ENDROOT
BRANCH   6  33
HETATM   33  C   UNK     0     -13.613  -1.327 -13.833  0.00  0.00     0.051 C 
BRANCH  33  34
HETATM   34  C   UNK     0     -14.636  -0.244 -14.081  0.00  0.00     0.114 C 
BRANCH  34  35
HETATM   35  C   UNK     0     -15.094  -0.378 -15.493  0.00  0.00     0.139 C 
HETATM   36  O   UNK     0     -14.444  -1.095 -16.309  0.00  0.00    -0.650 OA
BRANCH  35  37
HETATM   37  O   UNK     0     -16.232   0.258 -15.976  0.00  0.00    -0.776 OA
HETATM   38  H   UNK     0     -17.099   0.263 -15.464  0.00  0.00     0.167 HD
ENDBRANCH  35  37
ENDBRANCH  34  35
ENDBRANCH  33  34
ENDBRANCH   6  33
BRANCH  27  39
HETATM   39  C   UNK     0     -14.465   2.879  -6.266  0.00  0.00     0.051 C 
BRANCH  39  40
HETATM   40  C   UNK     0     -13.659   3.436  -5.180  0.00  0.00     0.114 C 
BRANCH  40  41
HETATM   41  C   UNK     0     -13.848   3.042  -3.801  0.00  0.00     0.139 C 
HETATM   42  O   UNK     0     -12.949   3.081  -2.950  0.00  0.00    -0.650 OA
BRANCH  41  43
HETATM   43  O   UNK     0     -15.128   2.582  -3.383  0.00  0.00    -0.776 OA
HETATM   44  H   UNK     0     -15.130   1.650  -2.986  0.00  0.00     0.167 HD
ENDBRANCH  41  43
ENDBRANCH  40  41
ENDBRANCH  39  40
ENDBRANCH  27  39
BRANCH  11  45
HETATM   45  C   UNK     0     -18.219  -6.173  -9.315  0.00  0.00     0.051 C 
BRANCH  45  46
HETATM   46  C   UNK     0     -17.701  -6.710  -8.030  0.00  0.00     0.114 C 
BRANCH  46  47
HETATM   47  C   UNK     0     -17.691  -8.196  -8.145  0.00  0.00     0.139 C 
HETATM   48  O   UNK     0     -18.123  -8.866  -7.196  0.00  0.00    -0.650 OA
BRANCH  47  49
HETATM   49  O   UNK     0     -17.213  -8.811  -9.274  0.00  0.00    -0.776 OA
HETATM   50  H   UNK     0     -17.209  -9.833  -9.378  0.00  0.00     0.167 HD
ENDBRANCH  47  49
ENDBRANCH  46  47
ENDBRANCH  45  46
ENDBRANCH  11  45
BRANCH  18  51
HETATM   51  C   UNK     0     -17.048  -2.073  -3.786  0.00  0.00     0.051 C 
BRANCH  51  52
HETATM   52  C   UNK     0     -18.341  -1.528  -3.197  0.00  0.00     0.114 C 
BRANCH  52  53
HETATM   53  C   UNK     0     -18.409  -0.057  -3.288  0.00  0.00     0.139 C 
HETATM   54  O   UNK     0     -19.400   0.489  -3.801  0.00  0.00    -0.650 OA
BRANCH  53  55
HETATM   55  O   UNK     0     -17.371   0.703  -2.807  0.00  0.00    -0.776 OA
HETATM   56  H   UNK     0     -16.673   0.401  -2.169  0.00  0.00     0.167 HD
ENDBRANCH  53  55
ENDBRANCH  52  53
ENDBRANCH  51  52
ENDBRANCH  18  51
TORSDOF 16
ENDMDL
MODEL 16
REMARK VINA RESULT:      -8.7     31.531     34.724
REMARK  16 active torsions:
REMARK  status: ('A' for Active; 'I' for Inactive)
REMARK    1  A    between atoms: C_6  and  C_7 
REMARK    2  A    between atoms: C_7  and  C_8 
REMARK    3  A    between atoms: C_8  and  C_9 
REMARK    4  A    between atoms: C_9  and  O_11 
REMARK    5  A    between atoms: C_16  and  C_17 
REMARK    6  A    between atoms: C_17  and  C_18 
REMARK    7  A    between atoms: C_18  and  C_19 
REMARK    8  A    between atoms: C_19  and  O_21 
REMARK    9  A    between atoms: C_28  and  C_29 
REMARK   10  A    between atoms: C_29  and  C_30 
REMARK   11  A    between atoms: C_30  and  C_31 
REMARK   12  A    between atoms: C_31  and  O_33 
REMARK   13  A    between atoms: C_42  and  C_43 
REMARK   14  A    between atoms: C_43  and  C_44 
REMARK   15  A    between atoms: C_44  and  C_45 
REMARK   16  A    between atoms: C_45  and  O_47 
ROOT
HETATM    1  C   UNK     0     -14.660   2.066  -4.301  0.00  0.00     0.051 C 
HETATM    2  C   UNK     0     -14.574   0.920  -5.289  0.00  0.00    -0.031 A 
HETATM    3  C   UNK     0     -14.642  -0.445  -5.061  0.00  0.00     0.021 A 
HETATM    4  N   UNK     0     -14.487  -1.097  -6.238  0.00  0.00    -0.361 N 
HETATM    5  C   UNK     0     -14.330  -0.177  -7.212  0.00  0.00     0.022 A 
HETATM    6  C   UNK     0     -14.377   1.096  -6.652  0.00  0.00    -0.027 A 
HETATM    7  C   UNK     0     -14.216  -0.367  -8.692  0.00  0.00     0.115 C 
HETATM    8  C   UNK     0     -15.155  -1.380  -9.323  0.00  0.00     0.021 A 
HETATM    9  N   UNK     0     -16.424  -1.664  -8.992  0.00  0.00    -0.361 N 
HETATM   10  C   UNK     0     -16.837  -2.695  -9.759  0.00  0.00     0.022 A 
HETATM   11  C   UNK     0     -15.809  -3.080 -10.615  0.00  0.00    -0.027 A 
HETATM   12  C   UNK     0     -14.746  -2.256 -10.345  0.00  0.00    -0.031 A 
HETATM   13  C   UNK     0     -13.404  -2.304 -11.040  0.00  0.00     0.051 C 
HETATM   14  C   UNK     0     -18.193  -3.390  -9.681  0.00  0.00     0.115 C 
HETATM   15  C   UNK     0     -18.477  -4.035  -8.334  0.00  0.00     0.021 A 
HETATM   16  N   UNK     0     -18.516  -3.437  -7.128  0.00  0.00    -0.361 N 
HETATM   17  C   UNK     0     -18.727  -4.361  -6.188  0.00  0.00     0.022 A 
HETATM   18  C   UNK     0     -18.841  -5.619  -6.811  0.00  0.00    -0.027 A 
HETATM   19  C   UNK     0     -18.684  -5.402  -8.155  0.00  0.00    -0.031 A 
HETATM   20  C   UNK     0     -18.772  -6.496  -9.203  0.00  0.00     0.051 C 
HETATM   21  C   UNK     0     -18.782  -4.220  -4.683  0.00  0.00     0.115 C 
HETATM   22  C   UNK     0     -17.886  -3.185  -4.046  0.00  0.00     0.022 A 
HETATM   23  N   UNK     0     -16.620  -2.878  -4.358  0.00  0.00    -0.361 N 
HETATM   24  C   UNK     0     -16.255  -1.799  -3.636  0.00  0.00     0.021 A 
HETATM   25  C   UNK     0     -17.309  -1.407  -2.833  0.00  0.00    -0.031 A 
HETATM   26  C   UNK     0     -17.370  -0.280  -1.823  0.00  0.00     0.051 C 
HETATM   27  C   UNK     0     -18.364  -2.279  -3.077  0.00  0.00    -0.027 A 
HETATM   28  C   UNK     0     -14.948  -1.029  -3.711  0.00  0.00     0.115 C 
HETATM   29  H   UNK     0     -14.450  -2.204  -6.366  0.00  0.00     0.165 HD
HETATM   30  H   UNK     0     -17.048  -1.106  -8.252  0.00  0.00     0.165 HD
HETATM   31  H   UNK     0     -18.440  -2.335  -6.941  0.00  0.00     0.165 HD
HETATM   32  H   UNK     0     -15.956  -3.448  -5.059  0.00  0.00     0.165 HD
ENDROOT
BRANCH   6  33
HETATM   33  C   UNK     0     -14.247   2.448  -7.307  0.00  0.00     0.051 C 
BRANCH  33  34
HETATM   34  C   UNK     0     -12.795   2.840  -7.443  0.00  0.00     0.114 C 
BRANCH  34  35
HETATM   35  C   UNK     0     -12.619   4.150  -6.753  0.00  0.00     0.139 C 
HETATM   36  O   UNK     0     -13.629   4.799  -6.352  0.00  0.00    -0.650 OA
BRANCH  35  37
HETATM   37  O   UNK     0     -11.370   4.712  -6.519  0.00  0.00    -0.776 OA
HETATM   38  H   UNK     0     -11.256   5.689  -6.298  0.00  0.00     0.167 HD
ENDBRANCH  35  37
ENDBRANCH  34  35
ENDBRANCH  33  34
ENDBRANCH   6  33
BRANCH  27  39
HETATM   39  C   UNK     0     -19.655  -2.216  -2.340  0.00  0.00     0.051 C 
BRANCH  39  40
HETATM   40  C   UNK     0     -20.776  -1.514  -2.963  0.00  0.00     0.114 C 
BRANCH  40  41
HETATM   41  C   UNK     0     -20.597  -0.296  -3.721  0.00  0.00     0.139 C 
HETATM   42  O   UNK     0     -20.594  -0.255  -4.959  0.00  0.00    -0.650 OA
BRANCH  41  43
HETATM   43  O   UNK     0     -20.413   0.932  -3.023  0.00  0.00    -0.776 OA
HETATM   44  H   UNK     0     -19.792   0.871  -2.226  0.00  0.00     0.167 HD
ENDBRANCH  41  43
ENDBRANCH  40  41
ENDBRANCH  39  40
ENDBRANCH  27  39
BRANCH  11  45
HETATM   45  C   UNK     0     -15.805  -4.171 -11.651  0.00  0.00     0.051 C 
BRANCH  45  46
HETATM   46  C   UNK     0     -16.046  -5.530 -11.101  0.00  0.00     0.114 C 
BRANCH  46  47
HETATM   47  C   UNK     0     -14.850  -5.897 -10.289  0.00  0.00     0.139 C 
HETATM   48  O   UNK     0     -13.734  -5.848 -10.824  0.00  0.00    -0.650 OA
BRANCH  47  49
HETATM   49  O   UNK     0     -14.982  -6.282  -8.979  0.00  0.00    -0.776 OA
HETATM   50  H   UNK     0     -14.925  -7.266  -8.692  0.00  0.00     0.167 HD
ENDBRANCH  47  49
ENDBRANCH  46  47
ENDBRANCH  45  46
ENDBRANCH  11  45
BRANCH  18  51
HETATM   51  C   UNK     0     -19.106  -6.953  -6.162  0.00  0.00     0.051 C 
BRANCH  51  52
HETATM   52  C   UNK     0     -17.843  -7.313  -5.395  0.00  0.00     0.114 C 
BRANCH  52  53
HETATM   53  C   UNK     0     -16.699  -7.544  -6.299  0.00  0.00     0.139 C 
HETATM   54  O   UNK     0     -15.653  -6.890  -6.157  0.00  0.00    -0.650 OA
BRANCH  53  55
HETATM   55  O   UNK     0     -16.799  -8.482  -7.297  0.00  0.00    -0.776 OA
HETATM   56  H   UNK     0     -17.599  -9.033  -7.502  0.00  0.00     0.167 HD
ENDBRANCH  53  55
ENDBRANCH  52  53
ENDBRANCH  51  52
ENDBRANCH  18  51
TORSDOF 16
ENDMDL
MODEL 17
REMARK VINA RESULT:      -8.7     31.373     34.903
REMARK  16 active torsions:
REMARK  status: ('A' for Active; 'I' for Inactive)
REMARK    1  A    between atoms: C_6  and  C_7 
REMARK    2  A    between atoms: C_7  and  C_8 
REMARK    3  A    between atoms: C_8  and  C_9 
REMARK    4  A    between atoms: C_9  and  O_11 
REMARK    5  A    between atoms: C_16  and  C_17 
REMARK    6  A    between atoms: C_17  and  C_18 
REMARK    7  A    between atoms: C_18  and  C_19 
REMARK    8  A    between atoms: C_19  and  O_21 
REMARK    9  A    between atoms: C_28  and  C_29 
REMARK   10  A    between atoms: C_29  and  C_30 
REMARK   11  A    between atoms: C_30  and  C_31 
REMARK   12  A    between atoms: C_31  and  O_33 
REMARK   13  A    between atoms: C_42  and  C_43 
REMARK   14  A    between atoms: C_43  and  C_44 
REMARK   15  A    between atoms: C_44  and  C_45 
REMARK   16  A    between atoms: C_45  and  O_47 
ROOT
HETATM    1  C   UNK     0     -14.697   1.818  -5.233  0.00  0.00     0.051 C 
HETATM    2  C   UNK     0     -13.988   1.192  -6.416  0.00  0.00    -0.031 A 
HETATM    3  C   UNK     0     -13.836  -0.146  -6.743  0.00  0.00     0.021 A 
HETATM    4  N   UNK     0     -13.100  -0.243  -7.875  0.00  0.00    -0.361 N 
HETATM    5  C   UNK     0     -12.788   1.004  -8.282  0.00  0.00     0.022 A 
HETATM    6  C   UNK     0     -13.325   1.926  -7.390  0.00  0.00    -0.027 A 
HETATM    7  C   UNK     0     -12.074   1.451  -9.520  0.00  0.00     0.115 C 
HETATM    8  C   UNK     0     -12.449   0.751 -10.814  0.00  0.00     0.021 A 
HETATM    9  N   UNK     0     -13.651   0.299 -11.202  0.00  0.00    -0.361 N 
HETATM   10  C   UNK     0     -13.499  -0.338 -12.382  0.00  0.00     0.022 A 
HETATM   11  C   UNK     0     -12.163  -0.286 -12.770  0.00  0.00    -0.027 A 
HETATM   12  C   UNK     0     -11.496   0.398 -11.786  0.00  0.00    -0.031 A 
HETATM   13  C   UNK     0     -10.015   0.703 -11.784  0.00  0.00     0.051 C 
HETATM   14  C   UNK     0     -14.592  -1.063 -13.163  0.00  0.00     0.115 C 
HETATM   15  C   UNK     0     -15.223  -2.222 -12.407  0.00  0.00     0.021 A 
HETATM   16  N   UNK     0     -15.853  -2.181 -11.218  0.00  0.00    -0.361 N 
HETATM   17  C   UNK     0     -16.201  -3.420 -10.863  0.00  0.00     0.022 A 
HETATM   18  C   UNK     0     -15.786  -4.309 -11.874  0.00  0.00    -0.027 A 
HETATM   19  C   UNK     0     -15.176  -3.547 -12.835  0.00  0.00    -0.031 A 
HETATM   20  C   UNK     0     -14.610  -4.110 -14.126  0.00  0.00     0.051 C 
HETATM   21  C   UNK     0     -16.861  -3.919  -9.598  0.00  0.00     0.115 C 
HETATM   22  C   UNK     0     -16.531  -3.203  -8.310  0.00  0.00     0.022 A 
HETATM   23  N   UNK     0     -15.343  -2.738  -7.899  0.00  0.00    -0.361 N 
HETATM   24  C   UNK     0     -15.532  -2.041  -6.761  0.00  0.00     0.021 A 
HETATM   25  C   UNK     0     -16.872  -2.066  -6.424  0.00  0.00    -0.031 A 
HETATM   26  C   UNK     0     -17.564  -1.464  -5.219  0.00  0.00     0.051 C 
HETATM   27  C   UNK     0     -17.531  -2.804  -7.401  0.00  0.00    -0.027 A 
HETATM   28  C   UNK     0     -14.501  -1.252  -5.972  0.00  0.00     0.115 C 
HETATM   29  H   UNK     0     -12.774  -1.193  -8.358  0.00  0.00     0.165 HD
HETATM   30  H   UNK     0     -14.619   0.471 -10.669  0.00  0.00     0.165 HD
HETATM   31  H   UNK     0     -16.100  -1.253 -10.639  0.00  0.00     0.165 HD
HETATM   32  H   UNK     0     -14.353  -2.935  -8.387  0.00  0.00     0.165 HD
ENDROOT
BRANCH   6  33
HETATM   33  C   UNK     0     -13.255   3.433  -7.392  0.00  0.00     0.051 C 
BRANCH  33  34
HETATM   34  C   UNK     0     -12.041   3.913  -6.633  0.00  0.00     0.114 C 
BRANCH  34  35
HETATM   35  C   UNK     0     -12.525   4.546  -5.372  0.00  0.00     0.139 C 
HETATM   36  O   UNK     0     -13.245   5.585  -5.417  0.00  0.00    -0.650 OA
BRANCH  35  37
HETATM   37  O   UNK     0     -12.220   4.039  -4.115  0.00  0.00    -0.776 OA
HETATM   38  H   UNK     0     -12.230   3.051  -3.920  0.00  0.00     0.167 HD
ENDBRANCH  35  37
ENDBRANCH  34  35
ENDBRANCH  33  34
ENDBRANCH   6  33
BRANCH  27  39
HETATM   39  C   UNK     0     -18.986  -3.110  -7.340  0.00  0.00     0.051 C 
BRANCH  39  40
HETATM   40  C   UNK     0     -19.907  -2.256  -8.090  0.00  0.00     0.114 C 
BRANCH  40  41
HETATM   41  C   UNK     0     -20.286  -0.940  -7.627  0.00  0.00     0.139 C 
HETATM   42  O   UNK     0     -20.338  -0.624  -6.431  0.00  0.00    -0.650 OA
BRANCH  41  43
HETATM   43  O   UNK     0     -20.621   0.059  -8.585  0.00  0.00    -0.776 OA
HETATM   44  H   UNK     0     -19.840   0.631  -8.884  0.00  0.00     0.167 HD
ENDBRANCH  41  43
ENDBRANCH  40  41
ENDBRANCH  39  40
ENDBRANCH  27  39
BRANCH  11  45
HETATM   45  C   UNK     0     -11.520  -0.848 -14.010  0.00  0.00     0.051 C 
BRANCH  45  46
HETATM   46  C   UNK     0     -11.982  -0.215 -15.271  0.00  0.00     0.114 C 
BRANCH  46  47
HETATM   47  C   UNK     0     -10.895   0.697 -15.731  0.00  0.00     0.139 C 
HETATM   48  O   UNK     0     -10.666   1.723 -15.075  0.00  0.00    -0.650 OA
BRANCH  47  49
HETATM   49  O   UNK     0     -10.166   0.410 -16.857  0.00  0.00    -0.776 OA
HETATM   50  H   UNK     0      -9.463  -0.339 -16.875  0.00  0.00     0.167 HD
ENDBRANCH  47  49
ENDBRANCH  46  47
ENDBRANCH  45  46
ENDBRANCH  11  45
BRANCH  18  51
HETATM   51  C   UNK     0     -15.980  -5.803 -11.930  0.00  0.00     0.051 C 
BRANCH  51  52
HETATM   52  C   UNK     0     -14.707  -6.419 -11.368  0.00  0.00     0.114 C 
BRANCH  52  53
HETATM   53  C   UNK     0     -14.879  -6.853  -9.968  0.00  0.00     0.139 C 
HETATM   54  O   UNK     0     -14.248  -6.289  -9.060  0.00  0.00    -0.650 OA
BRANCH  53  55
HETATM   55  O   UNK     0     -15.738  -7.885  -9.677  0.00  0.00    -0.776 OA
HETATM   56  H   UNK     0     -16.709  -7.801  -9.486  0.00  0.00     0.167 HD
ENDBRANCH  53  55
ENDBRANCH  52  53
ENDBRANCH  51  52
ENDBRANCH  18  51
TORSDOF 16
ENDMDL
MODEL 18
REMARK VINA RESULT:      -8.7     31.093     34.413
REMARK  16 active torsions:
REMARK  status: ('A' for Active; 'I' for Inactive)
REMARK    1  A    between atoms: C_6  and  C_7 
REMARK    2  A    between atoms: C_7  and  C_8 
REMARK    3  A    between atoms: C_8  and  C_9 
REMARK    4  A    between atoms: C_9  and  O_11 
REMARK    5  A    between atoms: C_16  and  C_17 
REMARK    6  A    between atoms: C_17  and  C_18 
REMARK    7  A    between atoms: C_18  and  C_19 
REMARK    8  A    between atoms: C_19  and  O_21 
REMARK    9  A    between atoms: C_28  and  C_29 
REMARK   10  A    between atoms: C_29  and  C_30 
REMARK   11  A    between atoms: C_30  and  C_31 
REMARK   12  A    between atoms: C_31  and  O_33 
REMARK   13  A    between atoms: C_42  and  C_43 
REMARK   14  A    between atoms: C_43  and  C_44 
REMARK   15  A    between atoms: C_44  and  C_45 
REMARK   16  A    between atoms: C_45  and  O_47 
ROOT
HETATM    1  C   UNK     0     -17.228  -8.391  -9.137  0.00  0.00     0.051 C 
HETATM    2  C   UNK     0     -16.717  -7.264  -8.263  0.00  0.00    -0.031 A 
HETATM    3  C   UNK     0     -15.545  -6.532  -8.368  0.00  0.00     0.021 A 
HETATM    4  N   UNK     0     -15.487  -5.644  -7.348  0.00  0.00    -0.361 N 
HETATM    5  C   UNK     0     -16.601  -5.788  -6.600  0.00  0.00     0.022 A 
HETATM    6  C   UNK     0     -17.391  -6.796  -7.143  0.00  0.00    -0.027 A 
HETATM    7  C   UNK     0     -17.065  -4.992  -5.420  0.00  0.00     0.115 C 
HETATM    8  C   UNK     0     -16.903  -3.485  -5.509  0.00  0.00     0.021 A 
HETATM    9  N   UNK     0     -17.026  -2.692  -6.585  0.00  0.00    -0.361 N 
HETATM   10  C   UNK     0     -16.704  -1.434  -6.218  0.00  0.00     0.022 A 
HETATM   11  C   UNK     0     -16.373  -1.413  -4.867  0.00  0.00    -0.027 A 
HETATM   12  C   UNK     0     -16.497  -2.702  -4.414  0.00  0.00    -0.031 A 
HETATM   13  C   UNK     0     -16.241  -3.158  -2.995  0.00  0.00     0.051 C 
HETATM   14  C   UNK     0     -16.644  -0.215  -7.135  0.00  0.00     0.115 C 
HETATM   15  C   UNK     0     -15.635  -0.344  -8.264  0.00  0.00     0.021 A 
HETATM   16  N   UNK     0     -15.591  -1.288  -9.223  0.00  0.00    -0.361 N 
HETATM   17  C   UNK     0     -14.511  -1.090  -9.983  0.00  0.00     0.022 A 
HETATM   18  C   UNK     0     -13.824   0.042  -9.503  0.00  0.00    -0.027 A 
HETATM   19  C   UNK     0     -14.539   0.501  -8.427  0.00  0.00    -0.031 A 
HETATM   20  C   UNK     0     -14.163   1.737  -7.630  0.00  0.00     0.051 C 
HETATM   21  C   UNK     0     -13.973  -1.906 -11.137  0.00  0.00     0.115 C 
HETATM   22  C   UNK     0     -14.166  -3.403 -11.083  0.00  0.00     0.022 A 
HETATM   23  N   UNK     0     -14.054  -4.217 -10.025  0.00  0.00    -0.361 N 
HETATM   24  C   UNK     0     -14.455  -5.450 -10.395  0.00  0.00     0.021 A 
HETATM   25  C   UNK     0     -14.824  -5.433 -11.726  0.00  0.00    -0.031 A 
HETATM   26  C   UNK     0     -15.301  -6.575 -12.598  0.00  0.00     0.051 C 
HETATM   27  C   UNK     0     -14.648  -4.133 -12.188  0.00  0.00    -0.027 A 
HETATM   28  C   UNK     0     -14.592  -6.684  -9.520  0.00  0.00     0.115 C 
HETATM   29  H   UNK     0     -14.641  -4.948  -7.140  0.00  0.00     0.165 HD
HETATM   30  H   UNK     0     -17.389  -3.009  -7.594  0.00  0.00     0.165 HD
HETATM   31  H   UNK     0     -16.363  -2.082  -9.397  0.00  0.00     0.165 HD
HETATM   32  H   UNK     0     -13.649  -3.938  -9.017  0.00  0.00     0.165 HD
ENDROOT
BRANCH   6  33
HETATM   33  C   UNK     0     -18.719  -7.342  -6.682  0.00  0.00     0.051 C 
BRANCH  33  34
HETATM   34  C   UNK     0     -18.601  -7.942  -5.301  0.00  0.00     0.114 C 
BRANCH  34  35
HETATM   35  C   UNK     0     -17.836  -9.216  -5.432  0.00  0.00     0.139 C 
HETATM   36  O   UNK     0     -16.744  -9.370  -4.812  0.00  0.00    -0.650 OA
BRANCH  35  37
HETATM   37  O   UNK     0     -18.272 -10.274  -6.220  0.00  0.00    -0.776 OA
HETATM   38  H   UNK     0     -17.649 -11.003  -6.529  0.00  0.00     0.167 HD
ENDBRANCH  35  37
ENDBRANCH  34  35
ENDBRANCH  33  34
ENDBRANCH   6  33
BRANCH  27  39
HETATM   39  C   UNK     0     -14.877  -3.739 -13.605  0.00  0.00     0.051 C 
BRANCH  39  40
HETATM   40  C   UNK     0     -13.731  -3.288 -14.393  0.00  0.00     0.114 C 
BRANCH  40  41
HETATM   41  C   UNK     0     -13.768  -2.078 -15.184  0.00  0.00     0.139 C 
HETATM   42  O   UNK     0     -12.938  -1.811 -16.064  0.00  0.00    -0.650 OA
BRANCH  41  43
HETATM   43  O   UNK     0     -14.806  -1.132 -14.952  0.00  0.00    -0.776 OA
HETATM   44  H   UNK     0     -15.614  -1.241 -15.554  0.00  0.00     0.167 HD
ENDBRANCH  41  43
ENDBRANCH  40  41
ENDBRANCH  39  40
ENDBRANCH  27  39
BRANCH  11  45
HETATM   45  C   UNK     0     -15.959  -0.243  -4.016  0.00  0.00     0.051 C 
BRANCH  45  46
HETATM   46  C   UNK     0     -14.518   0.103  -4.121  0.00  0.00     0.114 C 
BRANCH  46  47
HETATM   47  C   UNK     0     -14.364   1.504  -3.635  0.00  0.00     0.139 C 
HETATM   48  O   UNK     0     -15.018   2.399  -4.189  0.00  0.00    -0.650 OA
BRANCH  47  49
HETATM   49  O   UNK     0     -13.514   1.798  -2.599  0.00  0.00    -0.776 OA
HETATM   50  H   UNK     0     -13.138   2.743  -2.454  0.00  0.00     0.167 HD
ENDBRANCH  47  49
ENDBRANCH  46  47
ENDBRANCH  45  46
ENDBRANCH  11  45
BRANCH  18  51
HETATM   51  C   UNK     0     -12.567   0.665 -10.052  0.00  0.00     0.051 C 
BRANCH  51  52
HETATM   52  C   UNK     0     -11.411   0.037  -9.287  0.00  0.00     0.114 C 
BRANCH  52  53
HETATM   53  C   UNK     0     -10.157   0.793  -9.469  0.00  0.00     0.139 C 
HETATM   54  O   UNK     0      -9.970   1.847  -8.839  0.00  0.00    -0.650 OA
BRANCH  53  55
HETATM   55  O   UNK     0      -9.202   0.327 -10.339  0.00  0.00    -0.776 OA
HETATM   56  H   UNK     0      -9.365  -0.017 -11.256  0.00  0.00     0.167 HD
ENDBRANCH  53  55
ENDBRANCH  52  53
ENDBRANCH  51  52
ENDBRANCH  18  51
TORSDOF 16
ENDMDL
MODEL 19
REMARK VINA RESULT:      -8.6     31.554     34.682
REMARK  16 active torsions:
REMARK  status: ('A' for Active; 'I' for Inactive)
REMARK    1  A    between atoms: C_6  and  C_7 
REMARK    2  A    between atoms: C_7  and  C_8 
REMARK    3  A    between atoms: C_8  and  C_9 
REMARK    4  A    between atoms: C_9  and  O_11 
REMARK    5  A    between atoms: C_16  and  C_17 
REMARK    6  A    between atoms: C_17  and  C_18 
REMARK    7  A    between atoms: C_18  and  C_19 
REMARK    8  A    between atoms: C_19  and  O_21 
REMARK    9  A    between atoms: C_28  and  C_29 
REMARK   10  A    between atoms: C_29  and  C_30 
REMARK   11  A    between atoms: C_30  and  C_31 
REMARK   12  A    between atoms: C_31  and  O_33 
REMARK   13  A    between atoms: C_42  and  C_43 
REMARK   14  A    between atoms: C_43  and  C_44 
REMARK   15  A    between atoms: C_44  and  C_45 
REMARK   16  A    between atoms: C_45  and  O_47 
ROOT
HETATM    1  C   UNK     0     -12.794  -1.429 -12.064  0.00  0.00     0.051 C 
HETATM    2  C   UNK     0     -13.551  -2.351 -11.131  0.00  0.00    -0.031 A 
HETATM    3  C   UNK     0     -13.451  -2.486  -9.755  0.00  0.00     0.021 A 
HETATM    4  N   UNK     0     -14.300  -3.457  -9.344  0.00  0.00    -0.361 N 
HETATM    5  C   UNK     0     -14.945  -3.939 -10.427  0.00  0.00     0.022 A 
HETATM    6  C   UNK     0     -14.498  -3.271 -11.562  0.00  0.00    -0.027 A 
HETATM    7  C   UNK     0     -16.046  -4.950 -10.508  0.00  0.00     0.115 C 
HETATM    8  C   UNK     0     -17.149  -4.841  -9.470  0.00  0.00     0.021 A 
HETATM    9  N   UNK     0     -17.678  -3.735  -8.924  0.00  0.00    -0.361 N 
HETATM   10  C   UNK     0     -18.565  -4.116  -7.980  0.00  0.00     0.022 A 
HETATM   11  C   UNK     0     -18.615  -5.506  -7.923  0.00  0.00    -0.027 A 
HETATM   12  C   UNK     0     -17.726  -5.969  -8.859  0.00  0.00    -0.031 A 
HETATM   13  C   UNK     0     -17.448  -7.426  -9.155  0.00  0.00     0.051 C 
HETATM   14  C   UNK     0     -19.357  -3.190  -7.062  0.00  0.00     0.115 C 
HETATM   15  C   UNK     0     -18.489  -2.325  -6.163  0.00  0.00     0.021 A 
HETATM   16  N   UNK     0     -17.547  -1.438  -6.536  0.00  0.00    -0.361 N 
HETATM   17  C   UNK     0     -16.962  -0.935  -5.447  0.00  0.00     0.022 A 
HETATM   18  C   UNK     0     -17.558  -1.515  -4.309  0.00  0.00    -0.027 A 
HETATM   19  C   UNK     0     -18.513  -2.382  -4.771  0.00  0.00    -0.031 A 
HETATM   20  C   UNK     0     -19.423  -3.194  -3.867  0.00  0.00     0.051 C 
HETATM   21  C   UNK     0     -15.808   0.033  -5.324  0.00  0.00     0.115 C 
HETATM   22  C   UNK     0     -14.725  -0.034  -6.375  0.00  0.00     0.022 A 
HETATM   23  N   UNK     0     -14.182  -1.121  -6.939  0.00  0.00    -0.361 N 
HETATM   24  C   UNK     0     -13.360  -0.719  -7.929  0.00  0.00     0.021 A 
HETATM   25  C   UNK     0     -13.365   0.661  -7.997  0.00  0.00    -0.031 A 
HETATM   26  C   UNK     0     -12.577   1.574  -8.914  0.00  0.00     0.051 C 
HETATM   27  C   UNK     0     -14.231   1.122  -7.012  0.00  0.00    -0.027 A 
HETATM   28  C   UNK     0     -12.593  -1.587  -8.911  0.00  0.00     0.115 C 
HETATM   29  H   UNK     0     -14.409  -3.824  -8.297  0.00  0.00     0.165 HD
HETATM   30  H   UNK     0     -17.464  -2.684  -9.237  0.00  0.00     0.165 HD
HETATM   31  H   UNK     0     -17.323  -1.125  -7.589  0.00  0.00     0.165 HD
HETATM   32  H   UNK     0     -14.342  -2.182  -6.615  0.00  0.00     0.165 HD
ENDROOT
BRANCH   6  33
HETATM   33  C   UNK     0     -14.896  -3.439 -13.006  0.00  0.00     0.051 C 
BRANCH  33  34
HETATM   34  C   UNK     0     -14.482  -4.798 -13.520  0.00  0.00     0.114 C 
BRANCH  34  35
HETATM   35  C   UNK     0     -13.004  -4.768 -13.719  0.00  0.00     0.139 C 
HETATM   36  O   UNK     0     -12.276  -5.674 -13.218  0.00  0.00    -0.650 OA
BRANCH  35  37
HETATM   37  O   UNK     0     -12.366  -3.772 -14.448  0.00  0.00    -0.776 OA
HETATM   38  H   UNK     0     -12.355  -3.770 -15.455  0.00  0.00     0.167 HD
ENDBRANCH  35  37
ENDBRANCH  34  35
ENDBRANCH  33  34
ENDBRANCH   6  33
BRANCH  27  39
HETATM   39  C   UNK     0     -14.444   2.568  -6.732  0.00  0.00     0.051 C 
BRANCH  39  40
HETATM   40  C   UNK     0     -13.443   3.275  -5.934  0.00  0.00     0.114 C 
BRANCH  40  41
HETATM   41  C   UNK     0     -13.627   3.539  -4.525  0.00  0.00     0.139 C 
HETATM   42  O   UNK     0     -14.633   3.193  -3.890  0.00  0.00    -0.650 OA
BRANCH  41  43
HETATM   43  O   UNK     0     -12.606   4.231  -3.812  0.00  0.00    -0.776 OA
HETATM   44  H   UNK     0     -12.159   3.685  -3.086  0.00  0.00     0.167 HD
ENDBRANCH  41  43
ENDBRANCH  40  41
ENDBRANCH  39  40
ENDBRANCH  27  39
BRANCH  11  45
HETATM   45  C   UNK     0     -19.459  -6.382  -7.036  0.00  0.00     0.051 C 
BRANCH  45  46
HETATM   46  C   UNK     0     -18.998  -6.439  -5.626  0.00  0.00     0.114 C 
BRANCH  46  47
HETATM   47  C   UNK     0     -18.521  -7.829  -5.373  0.00  0.00     0.139 C 
HETATM   48  O   UNK     0     -17.844  -8.047  -4.358  0.00  0.00    -0.650 OA
BRANCH  47  49
HETATM   49  O   UNK     0     -18.823  -8.845  -6.244  0.00  0.00    -0.776 OA
HETATM   50  H   UNK     0     -18.176  -9.136  -6.987  0.00  0.00     0.167 HD
ENDBRANCH  47  49
ENDBRANCH  46  47
ENDBRANCH  45  46
ENDBRANCH  11  45
BRANCH  18  51
HETATM   51  C   UNK     0     -17.247  -1.240  -2.860  0.00  0.00     0.051 C 
BRANCH  51  52
HETATM   52  C   UNK     0     -17.808   0.141  -2.559  0.00  0.00     0.114 C 
BRANCH  52  53
HETATM   53  C   UNK     0     -19.265   0.105  -2.326  0.00  0.00     0.139 C 
HETATM   54  O   UNK     0     -19.731  -0.596  -1.414  0.00  0.00    -0.650 OA
BRANCH  53  55
HETATM   55  O   UNK     0     -20.099   0.847  -3.126  0.00  0.00    -0.776 OA
HETATM   56  H   UNK     0     -19.842   1.317  -3.962  0.00  0.00     0.167 HD
ENDBRANCH  53  55
ENDBRANCH  52  53
ENDBRANCH  51  52
ENDBRANCH  18  51
TORSDOF 16
ENDMDL
MODEL 20
REMARK VINA RESULT:      -8.6     30.930     34.777
REMARK  16 active torsions:
REMARK  status: ('A' for Active; 'I' for Inactive)
REMARK    1  A    between atoms: C_6  and  C_7 
REMARK    2  A    between atoms: C_7  and  C_8 
REMARK    3  A    between atoms: C_8  and  C_9 
REMARK    4  A    between atoms: C_9  and  O_11 
REMARK    5  A    between atoms: C_16  and  C_17 
REMARK    6  A    between atoms: C_17  and  C_18 
REMARK    7  A    between atoms: C_18  and  C_19 
REMARK    8  A    between atoms: C_19  and  O_21 
REMARK    9  A    between atoms: C_28  and  C_29 
REMARK   10  A    between atoms: C_29  and  C_30 
REMARK   11  A    between atoms: C_30  and  C_31 
REMARK   12  A    between atoms: C_31  and  O_33 
REMARK   13  A    between atoms: C_42  and  C_43 
REMARK   14  A    between atoms: C_43  and  C_44 
REMARK   15  A    between atoms: C_44  and  C_45 
REMARK   16  A    between atoms: C_45  and  O_47 
ROOT
HETATM    1  C   UNK     0     -14.881   0.374  -3.968  0.00  0.00     0.051 C 
HETATM    2  C   UNK     0     -15.530  -0.782  -4.701  0.00  0.00    -0.031 A 
HETATM    3  C   UNK     0     -16.082  -0.819  -5.972  0.00  0.00     0.021 A 
HETATM    4  N   UNK     0     -16.577  -2.059  -6.202  0.00  0.00    -0.361 N 
HETATM    5  C   UNK     0     -16.345  -2.814  -5.109  0.00  0.00     0.022 A 
HETATM    6  C   UNK     0     -15.694  -2.046  -4.150  0.00  0.00    -0.027 A 
HETATM    7  C   UNK     0     -16.607  -4.271  -4.886  0.00  0.00     0.115 C 
HETATM    8  C   UNK     0     -16.268  -5.209  -6.031  0.00  0.00     0.021 A 
HETATM    9  N   UNK     0     -15.253  -5.127  -6.906  0.00  0.00    -0.361 N 
HETATM   10  C   UNK     0     -15.396  -6.122  -7.807  0.00  0.00     0.022 A 
HETATM   11  C   UNK     0     -16.528  -6.871  -7.499  0.00  0.00    -0.027 A 
HETATM   12  C   UNK     0     -17.082  -6.301  -6.381  0.00  0.00    -0.031 A 
HETATM   13  C   UNK     0     -18.331  -6.786  -5.680  0.00  0.00     0.051 C 
HETATM   14  C   UNK     0     -14.505  -6.374  -9.020  0.00  0.00     0.115 C 
HETATM   15  C   UNK     0     -14.480  -5.225 -10.014  0.00  0.00     0.021 A 
HETATM   16  N   UNK     0     -14.112  -3.950  -9.787  0.00  0.00    -0.361 N 
HETATM   17  C   UNK     0     -14.298  -3.235 -10.899  0.00  0.00     0.022 A 
HETATM   18  C   UNK     0     -14.803  -4.087 -11.901  0.00  0.00    -0.027 A 
HETATM   19  C   UNK     0     -14.911  -5.330 -11.335  0.00  0.00    -0.031 A 
HETATM   20  C   UNK     0     -15.385  -6.561 -12.086  0.00  0.00     0.051 C 
HETATM   21  C   UNK     0     -14.109  -1.755 -11.146  0.00  0.00     0.115 C 
HETATM   22  C   UNK     0     -14.401  -0.814 -10.001  0.00  0.00     0.022 A 
HETATM   23  N   UNK     0     -15.401  -0.873  -9.112  0.00  0.00    -0.361 N 
HETATM   24  C   UNK     0     -15.196   0.079  -8.180  0.00  0.00     0.021 A 
HETATM   25  C   UNK     0     -14.040   0.775  -8.481  0.00  0.00    -0.031 A 
HETATM   26  C   UNK     0     -13.421   1.952  -7.758  0.00  0.00     0.051 C 
HETATM   27  C   UNK     0     -13.514   0.222  -9.643  0.00  0.00    -0.027 A 
HETATM   28  C   UNK     0     -16.009   0.341  -6.924  0.00  0.00     0.115 C 
HETATM   29  H   UNK     0     -17.122  -2.380  -7.120  0.00  0.00     0.165 HD
HETATM   30  H   UNK     0     -14.407  -4.399  -6.861  0.00  0.00     0.165 HD
HETATM   31  H   UNK     0     -13.666  -3.555  -8.837  0.00  0.00     0.165 HD
HETATM   32  H   UNK     0     -16.286  -1.560  -9.159  0.00  0.00     0.165 HD
ENDROOT
BRANCH   6  33
HETATM   33  C   UNK     0     -15.224  -2.416  -2.765  0.00  0.00     0.051 C 
BRANCH  33  34
HETATM   34  C   UNK     0     -16.248  -2.018  -1.729  0.00  0.00     0.114 C 
BRANCH  34  35
HETATM   35  C   UNK     0     -17.097  -3.214  -1.458  0.00  0.00     0.139 C 
HETATM   36  O   UNK     0     -16.564  -4.352  -1.304  0.00  0.00    -0.650 OA
BRANCH  35  37
HETATM   37  O   UNK     0     -18.481  -3.143  -1.360  0.00  0.00    -0.776 OA
HETATM   38  H   UNK     0     -19.072  -3.086  -2.173  0.00  0.00     0.167 HD
ENDBRANCH  35  37
ENDBRANCH  34  35
ENDBRANCH  33  34
ENDBRANCH   6  33
BRANCH  27  39
HETATM   39  C   UNK     0     -12.301   0.758 -10.318  0.00  0.00     0.051 C 
BRANCH  39  40
HETATM   40  C   UNK     0     -10.998   0.212  -9.940  0.00  0.00     0.114 C 
BRANCH  40  41
HETATM   41  C   UNK     0      -9.897   1.057  -9.535  0.00  0.00     0.139 C 
HETATM   42  O   UNK     0     -10.014   1.997  -8.737  0.00  0.00    -0.650 OA
BRANCH  41  43
HETATM   43  O   UNK     0      -8.602   0.810 -10.072  0.00  0.00    -0.776 OA
HETATM   44  H   UNK     0      -8.245  -0.121  -9.894  0.00  0.00     0.167 HD
ENDBRANCH  41  43
ENDBRANCH  40  41
ENDBRANCH  39  40
ENDBRANCH  27  39
BRANCH  11  45
HETATM   45  C   UNK     0     -17.082  -8.076  -8.209  0.00  0.00     0.051 C 
BRANCH  45  46
HETATM   46  C   UNK     0     -16.962  -9.341  -7.441  0.00  0.00     0.114 C 
BRANCH  46  47
HETATM   47  C   UNK     0     -16.891 -10.454  -8.431  0.00  0.00     0.139 C 
HETATM   48  O   UNK     0     -17.735 -10.495  -9.337  0.00  0.00    -0.650 OA
BRANCH  47  49
HETATM   49  O   UNK     0     -15.914 -11.413  -8.341  0.00  0.00    -0.776 OA
HETATM   50  H   UNK     0     -14.938 -11.178  -8.127  0.00  0.00     0.167 HD
ENDBRANCH  47  49
ENDBRANCH  46  47
ENDBRANCH  45  46
ENDBRANCH  11  45
BRANCH  18  51
HETATM   51  C   UNK     0     -15.144  -3.739 -13.327  0.00  0.00     0.051 C 
BRANCH  51  52
HETATM   52  C   UNK     0     -13.820  -3.474 -14.029  0.00  0.00     0.114 C 
BRANCH  52  53
HETATM   53  C   UNK     0     -13.892  -2.293 -14.910  0.00  0.00     0.139 C 
HETATM   54  O   UNK     0     -13.113  -2.185 -15.870  0.00  0.00    -0.650 OA
BRANCH  53  55
HETATM   55  O   UNK     0     -14.823  -1.314 -14.660  0.00  0.00    -0.776 OA
HETATM   56  H   UNK     0     -15.725  -1.246 -15.069  0.00  0.00     0.167 HD
ENDBRANCH  53  55
ENDBRANCH  52  53
ENDBRANCH  51  52
ENDBRANCH  18  51
TORSDOF 16
ENDMDL
