MODEL 1
REMARK VINA RESULT:     -10.1      0.000      0.000
REMARK  16 active torsions:
REMARK  status: ('A' for Active; 'I' for Inactive)
REMARK    1  A    between atoms: C_6  and  C_7 
REMARK    2  A    between atoms: C_7  and  C_8 
REMARK    3  A    between atoms: C_8  and  C_9 
REMARK    4  A    between atoms: C_9  and  O_11 
REMARK    5  A    between atoms: C_16  and  C_17 
REMARK    6  A    between atoms: C_17  and  C_18 
REMARK    7  A    between atoms: C_18  and  C_19 
REMARK    8  A    between atoms: C_19  and  O_21 
REMARK    9  A    between atoms: C_28  and  C_29 
REMARK   10  A    between atoms: C_29  and  C_30 
REMARK   11  A    between atoms: C_30  and  C_31 
REMARK   12  A    between atoms: C_31  and  O_33 
REMARK   13  A    between atoms: C_42  and  C_43 
REMARK   14  A    between atoms: C_43  and  C_44 
REMARK   15  A    between atoms: C_44  and  C_45 
REMARK   16  A    between atoms: C_45  and  O_47 
ROOT
HETATM    1  C   UNK     0     -23.873 -26.047  19.174  0.00  0.00     0.051 C 
HETATM    2  C   UNK     0     -23.958 -24.930  20.194  0.00  0.00    -0.031 A 
HETATM    3  C   UNK     0     -23.828 -24.986  21.573  0.00  0.00     0.021 A 
HETATM    4  N   UNK     0     -24.011 -23.745  22.084  0.00  0.00    -0.361 N 
HETATM    5  C   UNK     0     -24.246 -22.899  21.060  0.00  0.00     0.022 A 
HETATM    6  C   UNK     0     -24.223 -23.607  19.864  0.00  0.00    -0.027 A 
HETATM    7  C   UNK     0     -24.419 -21.412  21.075  0.00  0.00     0.115 C 
HETATM    8  C   UNK     0     -23.471 -20.624  21.963  0.00  0.00     0.021 A 
HETATM    9  N   UNK     0     -22.178 -20.867  22.229  0.00  0.00    -0.361 N 
HETATM   10  C   UNK     0     -21.761 -19.964  23.141  0.00  0.00     0.022 A 
HETATM   11  C   UNK     0     -22.811 -19.109  23.464  0.00  0.00    -0.027 A 
HETATM   12  C   UNK     0     -23.891 -19.520  22.725  0.00  0.00    -0.031 A 
HETATM   13  C   UNK     0     -25.260 -18.878  22.747  0.00  0.00     0.051 C 
HETATM   14  C   UNK     0     -20.377 -19.903  23.781  0.00  0.00     0.115 C 
HETATM   15  C   UNK     0     -20.009 -21.148  24.571  0.00  0.00     0.021 A 
HETATM   16  N   UNK     0     -19.939 -22.415  24.122  0.00  0.00    -0.361 N 
HETATM   17  C   UNK     0     -19.651 -23.226  25.142  0.00  0.00     0.022 A 
HETATM   18  C   UNK     0     -19.517 -22.450  26.310  0.00  0.00    -0.027 A 
HETATM   19  C   UNK     0     -19.742 -21.149  25.939  0.00  0.00    -0.031 A 
HETATM   20  C   UNK     0     -19.659 -19.973  26.894  0.00  0.00     0.051 C 
HETATM   21  C   UNK     0     -19.534 -24.733  25.182  0.00  0.00     0.115 C 
HETATM   22  C   UNK     0     -20.440 -25.528  24.272  0.00  0.00     0.022 A 
HETATM   23  N   UNK     0     -21.730 -25.307  23.985  0.00  0.00    -0.361 N 
HETATM   24  C   UNK     0     -22.103 -26.169  23.018  0.00  0.00     0.021 A 
HETATM   25  C   UNK     0     -21.030 -26.972  22.681  0.00  0.00    -0.031 A 
HETATM   26  C   UNK     0     -20.967 -28.109  21.683  0.00  0.00     0.051 C 
HETATM   27  C   UNK     0     -19.954 -26.581  23.470  0.00  0.00    -0.027 A 
HETATM   28  C   UNK     0     -23.440 -26.241  22.302  0.00  0.00     0.115 C 
HETATM   29  H   UNK     0     -24.012 -23.483  23.167  0.00  0.00     0.165 HD
HETATM   30  H   UNK     0     -21.544 -21.645  21.738  0.00  0.00     0.165 HD
HETATM   31  H   UNK     0     -20.049 -22.739  23.055  0.00  0.00     0.165 HD
HETATM   32  H   UNK     0     -22.402 -24.568  24.494  0.00  0.00     0.165 HD
ENDROOT
BRANCH   6  33
HETATM   33  C   UNK     0     -24.433 -23.130  18.449  0.00  0.00     0.051 C 
BRANCH  33  34
HETATM   34  C   UNK     0     -23.299 -22.233  18.013  0.00  0.00     0.114 C 
BRANCH  34  35
HETATM   35  C   UNK     0     -22.254 -23.102  17.398  0.00  0.00     0.139 C 
HETATM   36  O   UNK     0     -22.571 -23.951  16.515  0.00  0.00    -0.650 OA
BRANCH  35  37
HETATM   37  O   UNK     0     -20.913 -23.025  17.750  0.00  0.00    -0.776 OA
HETATM   38  H   UNK     0     -20.175 -23.222  17.093  0.00  0.00     0.167 HD
ENDBRANCH  35  37
ENDBRANCH  34  35
ENDBRANCH  33  34
ENDBRANCH   6  33
BRANCH  27  39
HETATM   39  C   UNK     0     -18.635 -27.268  23.441  0.00  0.00     0.051 C 
BRANCH  39  40
HETATM   40  C   UNK     0     -17.718 -26.964  22.342  0.00  0.00     0.114 C 
BRANCH  40  41
HETATM   41  C   UNK     0     -16.467 -26.271  22.551  0.00  0.00     0.139 C 
HETATM   42  O   UNK     0     -15.512 -26.332  21.766  0.00  0.00    -0.650 OA
BRANCH  41  43
HETATM   43  O   UNK     0     -16.307 -25.471  23.718  0.00  0.00    -0.776 OA
HETATM   44  H   UNK     0     -17.060 -25.555  24.390  0.00  0.00     0.167 HD
ENDBRANCH  41  43
ENDBRANCH  40  41
ENDBRANCH  39  40
ENDBRANCH  27  39
BRANCH  11  45
HETATM   45  C   UNK     0     -22.820 -17.948  24.421  0.00  0.00     0.051 C 
BRANCH  45  46
HETATM   46  C   UNK     0     -22.301 -16.682  23.843  0.00  0.00     0.114 C 
BRANCH  46  47
HETATM   47  C   UNK     0     -22.709 -15.578  24.759  0.00  0.00     0.139 C 
HETATM   48  O   UNK     0     -22.887 -15.839  25.957  0.00  0.00    -0.650 OA
BRANCH  47  49
HETATM   49  O   UNK     0     -22.885 -14.302  24.287  0.00  0.00    -0.776 OA
HETATM   50  H   UNK     0     -23.559 -13.653  24.709  0.00  0.00     0.167 HD
ENDBRANCH  47  49
ENDBRANCH  46  47
ENDBRANCH  45  46
ENDBRANCH  11  45
BRANCH  18  51
HETATM   51  C   UNK     0     -19.172 -22.918  27.700  0.00  0.00     0.051 C 
BRANCH  51  52
HETATM   52  C   UNK     0     -17.714 -22.547  27.926  0.00  0.00     0.114 C 
BRANCH  52  53
HETATM   53  C   UNK     0     -16.800 -23.622  27.495  0.00  0.00     0.139 C 
HETATM   54  O   UNK     0     -17.045 -24.802  27.794  0.00  0.00    -0.650 OA
BRANCH  53  55
HETATM   55  O   UNK     0     -15.678 -23.310  26.767  0.00  0.00    -0.776 OA
HETATM   56  H   UNK     0     -15.269 -22.409  26.682  0.00  0.00     0.167 HD
ENDBRANCH  53  55
ENDBRANCH  52  53
ENDBRANCH  51  52
ENDBRANCH  18  51
TORSDOF 16
ENDMDL
MODEL 2
REMARK VINA RESULT:      -9.7      3.796      8.722
REMARK  16 active torsions:
REMARK  status: ('A' for Active; 'I' for Inactive)
REMARK    1  A    between atoms: C_6  and  C_7 
REMARK    2  A    between atoms: C_7  and  C_8 
REMARK    3  A    between atoms: C_8  and  C_9 
REMARK    4  A    between atoms: C_9  and  O_11 
REMARK    5  A    between atoms: C_16  and  C_17 
REMARK    6  A    between atoms: C_17  and  C_18 
REMARK    7  A    between atoms: C_18  and  C_19 
REMARK    8  A    between atoms: C_19  and  O_21 
REMARK    9  A    between atoms: C_28  and  C_29 
REMARK   10  A    between atoms: C_29  and  C_30 
REMARK   11  A    between atoms: C_30  and  C_31 
REMARK   12  A    between atoms: C_31  and  O_33 
REMARK   13  A    between atoms: C_42  and  C_43 
REMARK   14  A    between atoms: C_43  and  C_44 
REMARK   15  A    between atoms: C_44  and  C_45 
REMARK   16  A    between atoms: C_45  and  O_47 
ROOT
HETATM    1  C   UNK     0     -25.203 -20.738  17.458  0.00  0.00     0.051 C 
HETATM    2  C   UNK     0     -24.258 -21.922  17.416  0.00  0.00    -0.031 A 
HETATM    3  C   UNK     0     -23.170 -22.209  18.225  0.00  0.00     0.021 A 
HETATM    4  N   UNK     0     -22.598 -23.362  17.803  0.00  0.00    -0.361 N 
HETATM    5  C   UNK     0     -23.303 -23.820  16.748  0.00  0.00     0.022 A 
HETATM    6  C   UNK     0     -24.347 -22.942  16.477  0.00  0.00    -0.027 A 
HETATM    7  C   UNK     0     -23.144 -25.094  15.978  0.00  0.00     0.115 C 
HETATM    8  C   UNK     0     -22.880 -26.351  16.788  0.00  0.00     0.021 A 
HETATM    9  N   UNK     0     -23.362 -26.684  17.996  0.00  0.00    -0.361 N 
HETATM   10  C   UNK     0     -22.787 -27.847  18.370  0.00  0.00     0.022 A 
HETATM   11  C   UNK     0     -21.919 -28.280  17.371  0.00  0.00    -0.027 A 
HETATM   12  C   UNK     0     -21.973 -27.342  16.372  0.00  0.00    -0.031 A 
HETATM   13  C   UNK     0     -21.194 -27.398  15.078  0.00  0.00     0.051 C 
HETATM   14  C   UNK     0     -22.992 -28.567  19.700  0.00  0.00     0.115 C 
HETATM   15  C   UNK     0     -22.570 -27.753  20.912  0.00  0.00     0.021 A 
HETATM   16  N   UNK     0     -23.030 -26.546  21.292  0.00  0.00    -0.361 N 
HETATM   17  C   UNK     0     -22.356 -26.139  22.370  0.00  0.00     0.022 A 
HETATM   18  C   UNK     0     -21.418 -27.133  22.714  0.00  0.00    -0.027 A 
HETATM   19  C   UNK     0     -21.563 -28.138  21.794  0.00  0.00    -0.031 A 
HETATM   20  C   UNK     0     -20.762 -29.428  21.820  0.00  0.00     0.051 C 
HETATM   21  C   UNK     0     -22.438 -24.837  23.134  0.00  0.00     0.115 C 
HETATM   22  C   UNK     0     -22.745 -23.585  22.346  0.00  0.00     0.022 A 
HETATM   23  N   UNK     0     -22.283 -23.229  21.140  0.00  0.00    -0.361 N 
HETATM   24  C   UNK     0     -22.926 -22.109  20.754  0.00  0.00     0.021 A 
HETATM   25  C   UNK     0     -23.817 -21.728  21.740  0.00  0.00    -0.031 A 
HETATM   26  C   UNK     0     -24.731 -20.522  21.785  0.00  0.00     0.051 C 
HETATM   27  C   UNK     0     -23.718 -22.658  22.769  0.00  0.00    -0.027 A 
HETATM   28  C   UNK     0     -22.810 -21.381  19.426  0.00  0.00     0.115 C 
HETATM   29  H   UNK     0     -21.676 -23.822  18.228  0.00  0.00     0.165 HD
HETATM   30  H   UNK     0     -24.145 -26.126  18.565  0.00  0.00     0.165 HD
HETATM   31  H   UNK     0     -23.881 -25.990  20.819  0.00  0.00     0.165 HD
HETATM   32  H   UNK     0     -21.466 -23.742  20.569  0.00  0.00     0.165 HD
ENDROOT
BRANCH   6  33
HETATM   33  C   UNK     0     -25.407 -22.996  15.406  0.00  0.00     0.051 C 
BRANCH  33  34
HETATM   34  C   UNK     0     -25.104 -22.011  14.303  0.00  0.00     0.114 C 
BRANCH  34  35
HETATM   35  C   UNK     0     -23.941 -22.543  13.536  0.00  0.00     0.139 C 
HETATM   36  O   UNK     0     -24.048 -23.622  12.884  0.00  0.00    -0.650 OA
BRANCH  35  37
HETATM   37  O   UNK     0     -22.711 -21.897  13.496  0.00  0.00    -0.776 OA
HETATM   38  H   UNK     0     -22.590 -21.006  13.042  0.00  0.00     0.167 HD
ENDBRANCH  35  37
ENDBRANCH  34  35
ENDBRANCH  33  34
ENDBRANCH   6  33
BRANCH  27  39
HETATM   39  C   UNK     0     -24.479 -22.540  24.043  0.00  0.00     0.051 C 
BRANCH  39  40
HETATM   40  C   UNK     0     -25.607 -23.445  24.264  0.00  0.00     0.114 C 
BRANCH  40  41
HETATM   41  C   UNK     0     -26.589 -23.716  23.239  0.00  0.00     0.139 C 
HETATM   42  O   UNK     0     -26.449 -24.589  22.372  0.00  0.00    -0.650 OA
BRANCH  41  43
HETATM   43  O   UNK     0     -27.788 -22.949  23.210  0.00  0.00    -0.776 OA
HETATM   44  H   UNK     0     -27.698 -22.048  22.757  0.00  0.00     0.167 HD
ENDBRANCH  41  43
ENDBRANCH  40  41
ENDBRANCH  39  40
ENDBRANCH  27  39
BRANCH  11  45
HETATM   45  C   UNK     0     -21.068 -29.520  17.337  0.00  0.00     0.051 C 
BRANCH  45  46
HETATM   46  C   UNK     0     -21.822 -30.765  17.039  0.00  0.00     0.114 C 
BRANCH  46  47
HETATM   47  C   UNK     0     -20.869 -31.903  17.180  0.00  0.00     0.139 C 
HETATM   48  O   UNK     0     -21.230 -33.027  16.806  0.00  0.00    -0.650 OA
BRANCH  47  49
HETATM   49  O   UNK     0     -19.620 -31.711  17.714  0.00  0.00    -0.776 OA
HETATM   50  H   UNK     0     -18.775 -32.102  17.280  0.00  0.00     0.167 HD
ENDBRANCH  47  49
ENDBRANCH  46  47
ENDBRANCH  45  46
ENDBRANCH  11  45
BRANCH  18  51
HETATM   51  C   UNK     0     -20.450 -27.133  23.869  0.00  0.00     0.051 C 
BRANCH  51  52
HETATM   52  C   UNK     0     -19.238 -26.336  23.410  0.00  0.00     0.114 C 
BRANCH  52  53
HETATM   53  C   UNK     0     -17.987 -27.105  23.559  0.00  0.00     0.139 C 
HETATM   54  O   UNK     0     -18.031 -28.327  23.772  0.00  0.00    -0.650 OA
BRANCH  53  55
HETATM   55  O   UNK     0     -16.778 -26.461  23.462  0.00  0.00    -0.776 OA
HETATM   56  H   UNK     0     -16.641 -25.478  23.432  0.00  0.00     0.167 HD
ENDBRANCH  53  55
ENDBRANCH  52  53
ENDBRANCH  51  52
ENDBRANCH  18  51
TORSDOF 16
ENDMDL
MODEL 3
REMARK VINA RESULT:      -9.6      2.487      7.755
REMARK  16 active torsions:
REMARK  status: ('A' for Active; 'I' for Inactive)
REMARK    1  A    between atoms: C_6  and  C_7 
REMARK    2  A    between atoms: C_7  and  C_8 
REMARK    3  A    between atoms: C_8  and  C_9 
REMARK    4  A    between atoms: C_9  and  O_11 
REMARK    5  A    between atoms: C_16  and  C_17 
REMARK    6  A    between atoms: C_17  and  C_18 
REMARK    7  A    between atoms: C_18  and  C_19 
REMARK    8  A    between atoms: C_19  and  O_21 
REMARK    9  A    between atoms: C_28  and  C_29 
REMARK   10  A    between atoms: C_29  and  C_30 
REMARK   11  A    between atoms: C_30  and  C_31 
REMARK   12  A    between atoms: C_31  and  O_33 
REMARK   13  A    between atoms: C_42  and  C_43 
REMARK   14  A    between atoms: C_43  and  C_44 
REMARK   15  A    between atoms: C_44  and  C_45 
REMARK   16  A    between atoms: C_45  and  O_47 
ROOT
HETATM    1  C   UNK     0     -20.315 -16.197  26.989  0.00  0.00     0.051 C 
HETATM    2  C   UNK     0     -20.993 -16.687  25.725  0.00  0.00    -0.031 A 
HETATM    3  C   UNK     0     -20.557 -17.621  24.799  0.00  0.00     0.021 A 
HETATM    4  N   UNK     0     -21.475 -17.722  23.808  0.00  0.00    -0.361 N 
HETATM    5  C   UNK     0     -22.490 -16.878  24.088  0.00  0.00     0.022 A 
HETATM    6  C   UNK     0     -22.219 -16.213  25.279  0.00  0.00    -0.027 A 
HETATM    7  C   UNK     0     -23.786 -16.677  23.367  0.00  0.00     0.115 C 
HETATM    8  C   UNK     0     -24.500 -17.928  22.886  0.00  0.00     0.021 A 
HETATM    9  N   UNK     0     -24.568 -19.131  23.475  0.00  0.00    -0.361 N 
HETATM   10  C   UNK     0     -25.228 -19.968  22.647  0.00  0.00     0.022 A 
HETATM   11  C   UNK     0     -25.605 -19.282  21.496  0.00  0.00    -0.027 A 
HETATM   12  C   UNK     0     -25.150 -17.996  21.640  0.00  0.00    -0.031 A 
HETATM   13  C   UNK     0     -25.335 -16.885  20.631  0.00  0.00     0.051 C 
HETATM   14  C   UNK     0     -25.483 -21.454  22.883  0.00  0.00     0.115 C 
HETATM   15  C   UNK     0     -24.216 -22.283  23.012  0.00  0.00     0.021 A 
HETATM   16  N   UNK     0     -23.222 -22.131  23.907  0.00  0.00    -0.361 N 
HETATM   17  C   UNK     0     -22.255 -23.013  23.644  0.00  0.00     0.022 A 
HETATM   18  C   UNK     0     -22.642 -23.783  22.529  0.00  0.00    -0.027 A 
HETATM   19  C   UNK     0     -23.872 -23.317  22.143  0.00  0.00    -0.031 A 
HETATM   20  C   UNK     0     -24.672 -23.899  20.992  0.00  0.00     0.051 C 
HETATM   21  C   UNK     0     -20.908 -23.204  24.303  0.00  0.00     0.115 C 
HETATM   22  C   UNK     0     -20.207 -21.972  24.826  0.00  0.00     0.022 A 
HETATM   23  N   UNK     0     -20.127 -20.760  24.262  0.00  0.00    -0.361 N 
HETATM   24  C   UNK     0     -19.534 -19.924  25.138  0.00  0.00     0.021 A 
HETATM   25  C   UNK     0     -19.214 -20.617  26.290  0.00  0.00    -0.031 A 
HETATM   26  C   UNK     0     -18.505 -20.123  27.534  0.00  0.00     0.051 C 
HETATM   27  C   UNK     0     -19.635 -21.930  26.114  0.00  0.00    -0.027 A 
HETATM   28  C   UNK     0     -19.305 -18.430  24.987  0.00  0.00     0.115 C 
HETATM   29  H   UNK     0     -21.381 -18.359  22.898  0.00  0.00     0.165 HD
HETATM   30  H   UNK     0     -24.193 -19.381  24.498  0.00  0.00     0.165 HD
HETATM   31  H   UNK     0     -23.224 -21.418  24.773  0.00  0.00     0.165 HD
HETATM   32  H   UNK     0     -20.450 -20.493  23.223  0.00  0.00     0.165 HD
ENDROOT
BRANCH   6  33
HETATM   33  C   UNK     0     -23.026 -15.172  26.014  0.00  0.00     0.051 C 
BRANCH  33  34
HETATM   34  C   UNK     0     -23.428 -14.052  25.084  0.00  0.00     0.114 C 
BRANCH  34  35
HETATM   35  C   UNK     0     -24.660 -13.426  25.645  0.00  0.00     0.139 C 
HETATM   36  O   UNK     0     -25.802 -13.854  25.308  0.00  0.00    -0.650 OA
BRANCH  35  37
HETATM   37  O   UNK     0     -24.620 -12.369  26.547  0.00  0.00    -0.776 OA
HETATM   38  H   UNK     0     -23.751 -11.986  26.883  0.00  0.00     0.167 HD
ENDBRANCH  35  37
ENDBRANCH  34  35
ENDBRANCH  33  34
ENDBRANCH   6  33
BRANCH  27  39
HETATM   39  C   UNK     0     -19.397 -22.999  27.122  0.00  0.00     0.051 C 
BRANCH  39  40
HETATM   40  C   UNK     0     -20.415 -23.225  28.148  0.00  0.00     0.114 C 
BRANCH  40  41
HETATM   41  C   UNK     0     -20.074 -23.609  29.499  0.00  0.00     0.139 C 
HETATM   42  O   UNK     0     -20.129 -22.834  30.464  0.00  0.00    -0.650 OA
BRANCH  41  43
HETATM   43  O   UNK     0     -19.651 -24.944  29.753  0.00  0.00    -0.776 OA
HETATM   44  H   UNK     0     -18.646 -25.065  29.792  0.00  0.00     0.167 HD
ENDBRANCH  41  43
ENDBRANCH  40  41
ENDBRANCH  39  40
ENDBRANCH  27  39
BRANCH  11  45
HETATM   45  C   UNK     0     -26.364 -19.793  20.301  0.00  0.00     0.051 C 
BRANCH  45  46
HETATM   46  C   UNK     0     -25.621 -19.685  19.020  0.00  0.00     0.114 C 
BRANCH  46  47
HETATM   47  C   UNK     0     -25.015 -21.020  18.747  0.00  0.00     0.139 C 
HETATM   48  O   UNK     0     -23.808 -21.180  18.976  0.00  0.00    -0.650 OA
BRANCH  47  49
HETATM   49  O   UNK     0     -25.775 -22.049  18.253  0.00  0.00    -0.776 OA
HETATM   50  H   UNK     0     -26.745 -21.911  17.945  0.00  0.00     0.167 HD
ENDBRANCH  47  49
ENDBRANCH  46  47
ENDBRANCH  45  46
ENDBRANCH  11  45
BRANCH  18  51
HETATM   51  C   UNK     0     -21.889 -24.915  21.880  0.00  0.00     0.051 C 
BRANCH  51  52
HETATM   52  C   UNK     0     -22.299 -26.179  22.621  0.00  0.00     0.114 C 
BRANCH  52  53
HETATM   53  C   UNK     0     -21.154 -26.815  23.300  0.00  0.00     0.139 C 
HETATM   54  O   UNK     0     -20.002 -26.399  23.096  0.00  0.00    -0.650 OA
BRANCH  53  55
HETATM   55  O   UNK     0     -21.370 -27.869  24.154  0.00  0.00    -0.776 OA
HETATM   56  H   UNK     0     -21.481 -28.820  23.892  0.00  0.00     0.167 HD
ENDBRANCH  53  55
ENDBRANCH  52  53
ENDBRANCH  51  52
ENDBRANCH  18  51
TORSDOF 16
ENDMDL
MODEL 4
REMARK VINA RESULT:      -9.5      2.889      8.376
REMARK  16 active torsions:
REMARK  status: ('A' for Active; 'I' for Inactive)
REMARK    1  A    between atoms: C_6  and  C_7 
REMARK    2  A    between atoms: C_7  and  C_8 
REMARK    3  A    between atoms: C_8  and  C_9 
REMARK    4  A    between atoms: C_9  and  O_11 
REMARK    5  A    between atoms: C_16  and  C_17 
REMARK    6  A    between atoms: C_17  and  C_18 
REMARK    7  A    between atoms: C_18  and  C_19 
REMARK    8  A    between atoms: C_19  and  O_21 
REMARK    9  A    between atoms: C_28  and  C_29 
REMARK   10  A    between atoms: C_29  and  C_30 
REMARK   11  A    between atoms: C_30  and  C_31 
REMARK   12  A    between atoms: C_31  and  O_33 
REMARK   13  A    between atoms: C_42  and  C_43 
REMARK   14  A    between atoms: C_43  and  C_44 
REMARK   15  A    between atoms: C_44  and  C_45 
REMARK   16  A    between atoms: C_45  and  O_47 
ROOT
HETATM    1  C   UNK     0     -23.337 -23.244  21.224  0.00  0.00     0.051 C 
HETATM    2  C   UNK     0     -22.047 -23.450  21.991  0.00  0.00    -0.031 A 
HETATM    3  C   UNK     0     -21.007 -22.562  22.217  0.00  0.00     0.021 A 
HETATM    4  N   UNK     0     -20.040 -23.188  22.929  0.00  0.00    -0.361 N 
HETATM    5  C   UNK     0     -20.445 -24.452  23.170  0.00  0.00     0.022 A 
HETATM    6  C   UNK     0     -21.696 -24.650  22.595  0.00  0.00    -0.027 A 
HETATM    7  C   UNK     0     -19.792 -25.521  23.989  0.00  0.00     0.115 C 
HETATM    8  C   UNK     0     -19.193 -25.093  25.316  0.00  0.00     0.021 A 
HETATM    9  N   UNK     0     -19.642 -24.166  26.176  0.00  0.00    -0.361 N 
HETATM   10  C   UNK     0     -18.744 -24.052  27.178  0.00  0.00     0.022 A 
HETATM   11  C   UNK     0     -17.692 -24.937  26.961  0.00  0.00    -0.027 A 
HETATM   12  C   UNK     0     -17.968 -25.596  25.791  0.00  0.00    -0.031 A 
HETATM   13  C   UNK     0     -17.099 -26.661  25.161  0.00  0.00     0.051 C 
HETATM   14  C   UNK     0     -18.815 -23.072  28.345  0.00  0.00     0.115 C 
HETATM   15  C   UNK     0     -18.809 -21.611  27.924  0.00  0.00     0.021 A 
HETATM   16  N   UNK     0     -19.685 -20.986  27.116  0.00  0.00    -0.361 N 
HETATM   17  C   UNK     0     -19.293 -19.723  26.938  0.00  0.00     0.022 A 
HETATM   18  C   UNK     0     -18.109 -19.512  27.672  0.00  0.00    -0.027 A 
HETATM   19  C   UNK     0     -17.818 -20.702  28.287  0.00  0.00    -0.031 A 
HETATM   20  C   UNK     0     -16.632 -20.905  29.213  0.00  0.00     0.051 C 
HETATM   21  C   UNK     0     -19.885 -18.635  26.070  0.00  0.00     0.115 C 
HETATM   22  C   UNK     0     -20.524 -19.052  24.767  0.00  0.00     0.022 A 
HETATM   23  N   UNK     0     -20.101 -19.975  23.893  0.00  0.00    -0.361 N 
HETATM   24  C   UNK     0     -21.048 -20.126  22.945  0.00  0.00     0.021 A 
HETATM   25  C   UNK     0     -22.102 -19.273  23.210  0.00  0.00    -0.031 A 
HETATM   26  C   UNK     0     -23.372 -19.053  22.415  0.00  0.00     0.051 C 
HETATM   27  C   UNK     0     -21.790 -18.575  24.371  0.00  0.00    -0.027 A 
HETATM   28  C   UNK     0     -21.063 -21.120  21.797  0.00  0.00     0.115 C 
HETATM   29  H   UNK     0     -19.060 -22.744  23.223  0.00  0.00     0.165 HD
HETATM   30  H   UNK     0     -20.618 -23.625  26.106  0.00  0.00     0.165 HD
HETATM   31  H   UNK     0     -20.627 -21.431  26.701  0.00  0.00     0.165 HD
HETATM   32  H   UNK     0     -19.109 -20.497  23.912  0.00  0.00     0.165 HD
ENDROOT
BRANCH   6  33
HETATM   33  C   UNK     0     -22.570 -25.879  22.573  0.00  0.00     0.051 C 
BRANCH  33  34
HETATM   34  C   UNK     0     -23.754 -25.709  23.495  0.00  0.00     0.114 C 
BRANCH  34  35
HETATM   35  C   UNK     0     -24.376 -27.053  23.675  0.00  0.00     0.139 C 
HETATM   36  O   UNK     0     -23.658 -28.095  23.654  0.00  0.00    -0.650 OA
BRANCH  35  37
HETATM   37  O   UNK     0     -25.740 -27.226  23.872  0.00  0.00    -0.776 OA
HETATM   38  H   UNK     0     -26.104 -27.813  24.606  0.00  0.00     0.167 HD
ENDBRANCH  35  37
ENDBRANCH  34  35
ENDBRANCH  33  34
ENDBRANCH   6  33
BRANCH  27  39
HETATM   39  C   UNK     0     -22.660 -17.507  24.933  0.00  0.00     0.051 C 
BRANCH  39  40
HETATM   40  C   UNK     0     -22.356 -16.116  24.599  0.00  0.00     0.114 C 
BRANCH  40  41
HETATM   41  C   UNK     0     -23.085 -15.008  25.173  0.00  0.00     0.139 C 
HETATM   42  O   UNK     0     -23.589 -15.034  26.304  0.00  0.00    -0.650 OA
BRANCH  41  43
HETATM   43  O   UNK     0     -23.242 -13.815  24.411  0.00  0.00    -0.776 OA
HETATM   44  H   UNK     0     -23.184 -13.947  23.409  0.00  0.00     0.167 HD
ENDBRANCH  41  43
ENDBRANCH  40  41
ENDBRANCH  39  40
ENDBRANCH  27  39
BRANCH  11  45
HETATM   45  C   UNK     0     -16.469 -25.172  27.808  0.00  0.00     0.051 C 
BRANCH  45  46
HETATM   46  C   UNK     0     -16.527 -26.411  28.625  0.00  0.00     0.114 C 
BRANCH  46  47
HETATM   47  C   UNK     0     -15.197 -27.076  28.512  0.00  0.00     0.139 C 
HETATM   48  O   UNK     0     -14.276 -26.686  29.242  0.00  0.00    -0.650 OA
BRANCH  47  49
HETATM   49  O   UNK     0     -14.997 -28.098  27.619  0.00  0.00    -0.776 OA
HETATM   50  H   UNK     0     -14.531 -28.973  27.887  0.00  0.00     0.167 HD
ENDBRANCH  47  49
ENDBRANCH  46  47
ENDBRANCH  45  46
ENDBRANCH  11  45
BRANCH  18  51
HETATM   51  C   UNK     0     -17.312 -18.240  27.799  0.00  0.00     0.051 C 
BRANCH  51  52
HETATM   52  C   UNK     0     -18.269 -17.189  28.340  0.00  0.00     0.114 C 
BRANCH  52  53
HETATM   53  C   UNK     0     -18.059 -15.874  27.704  0.00  0.00     0.139 C 
HETATM   54  O   UNK     0     -18.399 -14.836  28.294  0.00  0.00    -0.650 OA
BRANCH  53  55
HETATM   55  O   UNK     0     -17.488 -15.806  26.456  0.00  0.00    -0.776 OA
HETATM   56  H   UNK     0     -16.519 -15.721  26.261  0.00  0.00     0.167 HD
ENDBRANCH  53  55
ENDBRANCH  52  53
ENDBRANCH  51  52
ENDBRANCH  18  51
TORSDOF 16
ENDMDL
MODEL 5
REMARK VINA RESULT:      -9.3      1.989      7.177
REMARK  16 active torsions:
REMARK  status: ('A' for Active; 'I' for Inactive)
REMARK    1  A    between atoms: C_6  and  C_7 
REMARK    2  A    between atoms: C_7  and  C_8 
REMARK    3  A    between atoms: C_8  and  C_9 
REMARK    4  A    between atoms: C_9  and  O_11 
REMARK    5  A    between atoms: C_16  and  C_17 
REMARK    6  A    between atoms: C_17  and  C_18 
REMARK    7  A    between atoms: C_18  and  C_19 
REMARK    8  A    between atoms: C_19  and  O_21 
REMARK    9  A    between atoms: C_28  and  C_29 
REMARK   10  A    between atoms: C_29  and  C_30 
REMARK   11  A    between atoms: C_30  and  C_31 
REMARK   12  A    between atoms: C_31  and  O_33 
REMARK   13  A    between atoms: C_42  and  C_43 
REMARK   14  A    between atoms: C_43  and  C_44 
REMARK   15  A    between atoms: C_44  and  C_45 
REMARK   16  A    between atoms: C_45  and  O_47 
ROOT
HETATM    1  C   UNK     0     -22.747 -18.181  24.643  0.00  0.00     0.051 C 
HETATM    2  C   UNK     0     -22.622 -19.270  23.597  0.00  0.00    -0.031 A 
HETATM    3  C   UNK     0     -21.523 -20.043  23.258  0.00  0.00     0.021 A 
HETATM    4  N   UNK     0     -21.862 -20.872  22.242  0.00  0.00    -0.361 N 
HETATM    5  C   UNK     0     -23.156 -20.650  21.932  0.00  0.00     0.022 A 
HETATM    6  C   UNK     0     -23.662 -19.652  22.759  0.00  0.00    -0.027 A 
HETATM    7  C   UNK     0     -24.036 -21.362  20.952  0.00  0.00     0.115 C 
HETATM    8  C   UNK     0     -23.926 -22.876  20.913  0.00  0.00     0.021 A 
HETATM    9  N   UNK     0     -23.711 -23.726  21.929  0.00  0.00    -0.361 N 
HETATM   10  C   UNK     0     -23.596 -24.970  21.419  0.00  0.00     0.022 A 
HETATM   11  C   UNK     0     -23.751 -24.922  20.036  0.00  0.00    -0.027 A 
HETATM   12  C   UNK     0     -23.960 -23.606  19.711  0.00  0.00    -0.031 A 
HETATM   13  C   UNK     0     -24.185 -23.076  18.313  0.00  0.00     0.051 C 
HETATM   14  C   UNK     0     -23.284 -26.241  22.203  0.00  0.00     0.115 C 
HETATM   15  C   UNK     0     -21.943 -26.209  22.919  0.00  0.00     0.021 A 
HETATM   16  N   UNK     0     -21.526 -25.324  23.844  0.00  0.00    -0.361 N 
HETATM   17  C   UNK     0     -20.262 -25.598  24.175  0.00  0.00     0.022 A 
HETATM   18  C   UNK     0     -19.838 -26.721  23.437  0.00  0.00    -0.027 A 
HETATM   19  C   UNK     0     -20.900 -27.095  22.655  0.00  0.00    -0.031 A 
HETATM   20  C   UNK     0     -20.882 -28.293  21.724  0.00  0.00     0.051 C 
HETATM   21  C   UNK     0     -19.321 -24.867  25.106  0.00  0.00     0.115 C 
HETATM   22  C   UNK     0     -19.449 -23.364  25.188  0.00  0.00     0.022 A 
HETATM   23  N   UNK     0     -19.667 -22.494  24.193  0.00  0.00    -0.361 N 
HETATM   24  C   UNK     0     -19.856 -21.273  24.733  0.00  0.00     0.021 A 
HETATM   25  C   UNK     0     -19.746 -21.357  26.107  0.00  0.00    -0.031 A 
HETATM   26  C   UNK     0     -19.839 -20.253  27.140  0.00  0.00     0.051 C 
HETATM   27  C   UNK     0     -19.485 -22.686  26.423  0.00  0.00    -0.027 A 
HETATM   28  C   UNK     0     -20.226 -19.987  24.014  0.00  0.00     0.115 C 
HETATM   29  H   UNK     0     -21.174 -21.580  21.725  0.00  0.00     0.165 HD
HETATM   30  H   UNK     0     -23.689 -23.457  23.014  0.00  0.00     0.165 HD
HETATM   31  H   UNK     0     -22.152 -24.519  24.309  0.00  0.00     0.165 HD
HETATM   32  H   UNK     0     -19.647 -22.727  23.097  0.00  0.00     0.165 HD
ENDROOT
BRANCH   6  33
HETATM   33  C   UNK     0     -25.039 -19.040  22.810  0.00  0.00     0.051 C 
BRANCH  33  34
HETATM   34  C   UNK     0     -25.908 -19.761  23.813  0.00  0.00     0.114 C 
BRANCH  34  35
HETATM   35  C   UNK     0     -27.114 -20.253  23.088  0.00  0.00     0.139 C 
HETATM   36  O   UNK     0     -27.650 -19.542  22.189  0.00  0.00    -0.650 OA
BRANCH  35  37
HETATM   37  O   UNK     0     -27.696 -21.487  23.352  0.00  0.00    -0.776 OA
HETATM   38  H   UNK     0     -28.572 -21.764  22.938  0.00  0.00     0.167 HD
ENDBRANCH  35  37
ENDBRANCH  34  35
ENDBRANCH  33  34
ENDBRANCH   6  33
BRANCH  27  39
HETATM   39  C   UNK     0     -19.232 -23.154  27.812  0.00  0.00     0.051 C 
BRANCH  39  40
HETATM   40  C   UNK     0     -17.860 -23.123  28.316  0.00  0.00     0.114 C 
BRANCH  40  41
HETATM   41  C   UNK     0     -16.781 -23.826  27.659  0.00  0.00     0.139 C 
HETATM   42  O   UNK     0     -16.633 -25.054  27.712  0.00  0.00    -0.650 OA
BRANCH  41  43
HETATM   43  O   UNK     0     -15.829 -23.081  26.906  0.00  0.00    -0.776 OA
HETATM   44  H   UNK     0     -16.041 -22.095  26.820  0.00  0.00     0.167 HD
ENDBRANCH  41  43
ENDBRANCH  40  41
ENDBRANCH  39  40
ENDBRANCH  27  39
BRANCH  11  45
HETATM   45  C   UNK     0     -23.711 -26.053  19.044  0.00  0.00     0.051 C 
BRANCH  45  46
HETATM   46  C   UNK     0     -24.000 -27.386  19.633  0.00  0.00     0.114 C 
BRANCH  46  47
HETATM   47  C   UNK     0     -23.601 -28.409  18.625  0.00  0.00     0.139 C 
HETATM   48  O   UNK     0     -22.433 -28.410  18.212  0.00  0.00    -0.650 OA
BRANCH  47  49
HETATM   49  O   UNK     0     -24.507 -29.330  18.162  0.00  0.00    -0.776 OA
HETATM   50  H   UNK     0     -24.933 -29.255  17.231  0.00  0.00     0.167 HD
ENDBRANCH  47  49
ENDBRANCH  46  47
ENDBRANCH  45  46
ENDBRANCH  11  45
BRANCH  18  51
HETATM   51  C   UNK     0     -18.501 -27.413  23.490  0.00  0.00     0.051 C 
BRANCH  51  52
HETATM   52  C   UNK     0     -17.696 -26.874  22.316  0.00  0.00     0.114 C 
BRANCH  52  53
HETATM   53  C   UNK     0     -16.469 -26.186  22.761  0.00  0.00     0.139 C 
HETATM   54  O   UNK     0     -16.409 -25.697  23.900  0.00  0.00    -0.650 OA
BRANCH  53  55
HETATM   55  O   UNK     0     -15.398 -26.086  21.906  0.00  0.00    -0.776 OA
HETATM   56  H   UNK     0     -15.179 -26.713  21.168  0.00  0.00     0.167 HD
ENDBRANCH  53  55
ENDBRANCH  52  53
ENDBRANCH  51  52
ENDBRANCH  18  51
TORSDOF 16
ENDMDL
MODEL 6
REMARK VINA RESULT:      -9.3     29.032     31.871
REMARK  16 active torsions:
REMARK  status: ('A' for Active; 'I' for Inactive)
REMARK    1  A    between atoms: C_6  and  C_7 
REMARK    2  A    between atoms: C_7  and  C_8 
REMARK    3  A    between atoms: C_8  and  C_9 
REMARK    4  A    between atoms: C_9  and  O_11 
REMARK    5  A    between atoms: C_16  and  C_17 
REMARK    6  A    between atoms: C_17  and  C_18 
REMARK    7  A    between atoms: C_18  and  C_19 
REMARK    8  A    between atoms: C_19  and  O_21 
REMARK    9  A    between atoms: C_28  and  C_29 
REMARK   10  A    between atoms: C_29  and  C_30 
REMARK   11  A    between atoms: C_30  and  C_31 
REMARK   12  A    between atoms: C_31  and  O_33 
REMARK   13  A    between atoms: C_42  and  C_43 
REMARK   14  A    between atoms: C_43  and  C_44 
REMARK   15  A    between atoms: C_44  and  C_45 
REMARK   16  A    between atoms: C_45  and  O_47 
ROOT
HETATM    1  C   UNK     0      11.080 -17.913  16.899  0.00  0.00     0.051 C 
HETATM    2  C   UNK     0      10.603 -16.758  17.756  0.00  0.00    -0.031 A 
HETATM    3  C   UNK     0      10.592 -15.401  17.475  0.00  0.00     0.021 A 
HETATM    4  N   UNK     0      10.104 -14.733  18.548  0.00  0.00    -0.361 N 
HETATM    5  C   UNK     0       9.796 -15.636  19.502  0.00  0.00     0.022 A 
HETATM    6  C   UNK     0      10.098 -16.912  19.040  0.00  0.00    -0.027 A 
HETATM    7  C   UNK     0       9.143 -15.429  20.833  0.00  0.00     0.115 C 
HETATM    8  C   UNK     0       7.966 -14.470  20.873  0.00  0.00     0.021 A 
HETATM    9  N   UNK     0       7.022 -14.265  19.941  0.00  0.00    -0.361 N 
HETATM   10  C   UNK     0       6.230 -13.256  20.362  0.00  0.00     0.022 A 
HETATM   11  C   UNK     0       6.671 -12.804  21.602  0.00  0.00    -0.027 A 
HETATM   12  C   UNK     0       7.764 -13.565  21.930  0.00  0.00    -0.031 A 
HETATM   13  C   UNK     0       8.572 -13.431  23.201  0.00  0.00     0.051 C 
HETATM   14  C   UNK     0       5.065 -12.643  19.590  0.00  0.00     0.115 C 
HETATM   15  C   UNK     0       5.463 -12.025  18.260  0.00  0.00     0.021 A 
HETATM   16  N   UNK     0       6.064 -12.632  17.219  0.00  0.00    -0.361 N 
HETATM   17  C   UNK     0       6.308 -11.730  16.267  0.00  0.00     0.022 A 
HETATM   18  C   UNK     0       5.836 -10.476  16.704  0.00  0.00    -0.027 A 
HETATM   19  C   UNK     0       5.308 -10.675  17.953  0.00  0.00    -0.031 A 
HETATM   20  C   UNK     0       4.653  -9.581  18.776  0.00  0.00     0.051 C 
HETATM   21  C   UNK     0       7.022 -11.883  14.942  0.00  0.00     0.115 C 
HETATM   22  C   UNK     0       8.166 -12.867  14.877  0.00  0.00     0.022 A 
HETATM   23  N   UNK     0       9.118 -13.095  15.791  0.00  0.00    -0.361 N 
HETATM   24  C   UNK     0       9.847 -14.155  15.387  0.00  0.00     0.021 A 
HETATM   25  C   UNK     0       9.359 -14.615  14.179  0.00  0.00    -0.031 A 
HETATM   26  C   UNK     0       9.868 -15.750  13.316  0.00  0.00     0.051 C 
HETATM   27  C   UNK     0       8.283 -13.806  13.832  0.00  0.00    -0.027 A 
HETATM   28  C   UNK     0      10.976 -14.845  16.134  0.00  0.00     0.115 C 
HETATM   29  H   UNK     0      10.018 -13.625  18.638  0.00  0.00     0.165 HD
HETATM   30  H   UNK     0       6.881 -14.865  19.009  0.00  0.00     0.165 HD
HETATM   31  H   UNK     0       6.277 -13.730  17.134  0.00  0.00     0.165 HD
HETATM   32  H   UNK     0       9.312 -12.482  16.709  0.00  0.00     0.165 HD
ENDROOT
BRANCH   6  33
HETATM   33  C   UNK     0       9.947 -18.250  19.719  0.00  0.00     0.051 C 
BRANCH  33  34
HETATM   34  C   UNK     0      11.172 -18.574  20.542  0.00  0.00     0.114 C 
BRANCH  34  35
HETATM   35  C   UNK     0      10.707 -18.945  21.909  0.00  0.00     0.139 C 
HETATM   36  O   UNK     0      10.641 -20.162  22.250  0.00  0.00    -0.650 OA
BRANCH  35  37
HETATM   37  O   UNK     0      10.333 -18.000  22.856  0.00  0.00    -0.776 OA
HETATM   38  H   UNK     0      10.502 -17.015  22.724  0.00  0.00     0.167 HD
ENDBRANCH  35  37
ENDBRANCH  34  35
ENDBRANCH  33  34
ENDBRANCH   6  33
BRANCH  27  39
HETATM   39  C   UNK     0       7.540 -13.952  12.550  0.00  0.00     0.051 C 
BRANCH  39  40
HETATM   40  C   UNK     0       6.339 -14.785  12.536  0.00  0.00     0.114 C 
BRANCH  40  41
HETATM   41  C   UNK     0       5.542 -14.968  11.343  0.00  0.00     0.139 C 
HETATM   42  O   UNK     0       4.508 -14.330  11.107  0.00  0.00    -0.650 OA
BRANCH  41  43
HETATM   43  O   UNK     0       5.955 -15.930  10.378  0.00  0.00    -0.776 OA
HETATM   44  H   UNK     0       5.335 -16.017   9.581  0.00  0.00     0.167 HD
ENDBRANCH  41  43
ENDBRANCH  40  41
ENDBRANCH  39  40
ENDBRANCH  27  39
BRANCH  11  45
HETATM   45  C   UNK     0       6.102 -11.707  22.462  0.00  0.00     0.051 C 
BRANCH  45  46
HETATM   46  C   UNK     0       6.177 -10.356  21.849  0.00  0.00     0.114 C 
BRANCH  46  47
HETATM   47  C   UNK     0       7.598 -10.127  21.459  0.00  0.00     0.139 C 
HETATM   48  O   UNK     0       7.891 -10.138  20.256  0.00  0.00    -0.650 OA
BRANCH  47  49
HETATM   49  O   UNK     0       8.561  -9.909  22.412  0.00  0.00    -0.776 OA
HETATM   50  H   UNK     0       9.529 -10.231  22.292  0.00  0.00     0.167 HD
ENDBRANCH  47  49
ENDBRANCH  46  47
ENDBRANCH  45  46
ENDBRANCH  11  45
BRANCH  18  51
HETATM   51  C   UNK     0       5.867  -9.165  15.962  0.00  0.00     0.051 C 
BRANCH  51  52
HETATM   52  C   UNK     0       7.127  -8.446  16.422  0.00  0.00     0.114 C 
BRANCH  52  53
HETATM   53  C   UNK     0       8.123  -8.337  15.339  0.00  0.00     0.139 C 
HETATM   54  O   UNK     0       9.123  -9.072  15.337  0.00  0.00    -0.650 OA
BRANCH  53  55
HETATM   55  O   UNK     0       7.939  -7.415  14.336  0.00  0.00    -0.776 OA
HETATM   56  H   UNK     0       7.845  -7.616  13.368  0.00  0.00     0.167 HD
ENDBRANCH  53  55
ENDBRANCH  52  53
ENDBRANCH  51  52
ENDBRANCH  18  51
TORSDOF 16
ENDMDL
MODEL 7
REMARK VINA RESULT:      -9.3      2.515      8.827
REMARK  16 active torsions:
REMARK  status: ('A' for Active; 'I' for Inactive)
REMARK    1  A    between atoms: C_6  and  C_7 
REMARK    2  A    between atoms: C_7  and  C_8 
REMARK    3  A    between atoms: C_8  and  C_9 
REMARK    4  A    between atoms: C_9  and  O_11 
REMARK    5  A    between atoms: C_16  and  C_17 
REMARK    6  A    between atoms: C_17  and  C_18 
REMARK    7  A    between atoms: C_18  and  C_19 
REMARK    8  A    between atoms: C_19  and  O_21 
REMARK    9  A    between atoms: C_28  and  C_29 
REMARK   10  A    between atoms: C_29  and  C_30 
REMARK   11  A    between atoms: C_30  and  C_31 
REMARK   12  A    between atoms: C_31  and  O_33 
REMARK   13  A    between atoms: C_42  and  C_43 
REMARK   14  A    between atoms: C_43  and  C_44 
REMARK   15  A    between atoms: C_44  and  C_45 
REMARK   16  A    between atoms: C_45  and  O_47 
ROOT
HETATM    1  C   UNK     0     -22.788 -15.921  23.624  0.00  0.00     0.051 C 
HETATM    2  C   UNK     0     -22.516 -17.302  24.186  0.00  0.00    -0.031 A 
HETATM    3  C   UNK     0     -23.341 -18.415  24.222  0.00  0.00     0.021 A 
HETATM    4  N   UNK     0     -22.692 -19.425  24.849  0.00  0.00    -0.361 N 
HETATM    5  C   UNK     0     -21.469 -18.982  25.206  0.00  0.00     0.022 A 
HETATM    6  C   UNK     0     -21.326 -17.657  24.809  0.00  0.00    -0.027 A 
HETATM    7  C   UNK     0     -20.334 -19.726  25.837  0.00  0.00     0.115 C 
HETATM    8  C   UNK     0     -20.054 -21.121  25.307  0.00  0.00     0.021 A 
HETATM    9  N   UNK     0     -20.163 -21.575  24.049  0.00  0.00    -0.361 N 
HETATM   10  C   UNK     0     -19.903 -22.899  24.056  0.00  0.00     0.022 A 
HETATM   11  C   UNK     0     -19.610 -23.309  25.354  0.00  0.00    -0.027 A 
HETATM   12  C   UNK     0     -19.703 -22.193  26.147  0.00  0.00    -0.031 A 
HETATM   13  C   UNK     0     -19.462 -22.159  27.639  0.00  0.00     0.051 C 
HETATM   14  C   UNK     0     -19.973 -23.839  22.856  0.00  0.00     0.115 C 
HETATM   15  C   UNK     0     -21.351 -23.923  22.219  0.00  0.00     0.021 A 
HETATM   16  N   UNK     0     -22.078 -22.917  21.698  0.00  0.00    -0.361 N 
HETATM   17  C   UNK     0     -23.261 -23.390  21.302  0.00  0.00     0.022 A 
HETATM   18  C   UNK     0     -23.304 -24.773  21.570  0.00  0.00    -0.027 A 
HETATM   19  C   UNK     0     -22.101 -25.094  22.142  0.00  0.00    -0.031 A 
HETATM   20  C   UNK     0     -21.712 -26.502  22.556  0.00  0.00     0.051 C 
HETATM   21  C   UNK     0     -24.454 -22.664  20.724  0.00  0.00     0.115 C 
HETATM   22  C   UNK     0     -24.719 -21.258  21.210  0.00  0.00     0.022 A 
HETATM   23  N   UNK     0     -24.615 -20.778  22.456  0.00  0.00    -0.361 N 
HETATM   24  C   UNK     0     -24.801 -19.443  22.412  0.00  0.00     0.021 A 
HETATM   25  C   UNK     0     -25.041 -19.056  21.108  0.00  0.00    -0.031 A 
HETATM   26  C   UNK     0     -25.345 -17.676  20.563  0.00  0.00     0.051 C 
HETATM   27  C   UNK     0     -24.993 -20.201  20.320  0.00  0.00    -0.027 A 
HETATM   28  C   UNK     0     -24.687 -18.451  23.556  0.00  0.00     0.115 C 
HETATM   29  H   UNK     0     -23.118 -20.431  25.071  0.00  0.00     0.165 HD
HETATM   30  H   UNK     0     -20.373 -20.953  23.144  0.00  0.00     0.165 HD
HETATM   31  H   UNK     0     -21.731 -21.859  21.562  0.00  0.00     0.165 HD
HETATM   32  H   UNK     0     -24.452 -21.383  23.385  0.00  0.00     0.165 HD
ENDROOT
BRANCH   6  33
HETATM   33  C   UNK     0     -20.162 -16.714  24.976  0.00  0.00     0.051 C 
BRANCH  33  34
HETATM   34  C   UNK     0     -19.972 -16.350  26.429  0.00  0.00     0.114 C 
BRANCH  34  35
HETATM   35  C   UNK     0     -18.568 -16.691  26.795  0.00  0.00     0.139 C 
HETATM   36  O   UNK     0     -18.326 -17.692  27.531  0.00  0.00    -0.650 OA
BRANCH  35  37
HETATM   37  O   UNK     0     -17.478 -15.949  26.357  0.00  0.00    -0.776 OA
HETATM   38  H   UNK     0     -16.550 -16.094  26.723  0.00  0.00     0.167 HD
ENDBRANCH  35  37
ENDBRANCH  34  35
ENDBRANCH  33  34
ENDBRANCH   6  33
BRANCH  27  39
HETATM   39  C   UNK     0     -25.276 -20.191  18.858  0.00  0.00     0.051 C 
BRANCH  39  40
HETATM   40  C   UNK     0     -24.150 -20.048  17.935  0.00  0.00     0.114 C 
BRANCH  40  41
HETATM   41  C   UNK     0     -23.465 -21.190  17.373  0.00  0.00     0.139 C 
HETATM   42  O   UNK     0     -23.989 -22.304  17.239  0.00  0.00    -0.650 OA
BRANCH  41  43
HETATM   43  O   UNK     0     -22.114 -21.044  16.946  0.00  0.00    -0.776 OA
HETATM   44  H   UNK     0     -21.915 -20.166  16.481  0.00  0.00     0.167 HD
ENDBRANCH  41  43
ENDBRANCH  40  41
ENDBRANCH  39  40
ENDBRANCH  27  39
BRANCH  11  45
HETATM   45  C   UNK     0     -19.253 -24.684  25.850  0.00  0.00     0.051 C 
BRANCH  45  46
HETATM   46  C   UNK     0     -17.792 -24.946  25.908  0.00  0.00     0.114 C 
BRANCH  46  47
HETATM   47  C   UNK     0     -17.480 -25.406  27.292  0.00  0.00     0.139 C 
HETATM   48  O   UNK     0     -18.358 -25.306  28.160  0.00  0.00    -0.650 OA
BRANCH  47  49
HETATM   49  O   UNK     0     -16.249 -25.927  27.598  0.00  0.00    -0.776 OA
HETATM   50  H   UNK     0     -15.775 -25.720  28.485  0.00  0.00     0.167 HD
ENDBRANCH  47  49
ENDBRANCH  46  47
ENDBRANCH  45  46
ENDBRANCH  11  45
BRANCH  18  51
HETATM   51  C   UNK     0     -24.422 -25.739  21.276  0.00  0.00     0.051 C 
BRANCH  51  52
HETATM   52  C   UNK     0     -25.330 -25.724  22.496  0.00  0.00     0.114 C 
BRANCH  52  53
HETATM   53  C   UNK     0     -26.573 -24.969  22.247  0.00  0.00     0.139 C 
HETATM   54  O   UNK     0     -26.917 -24.064  23.025  0.00  0.00    -0.650 OA
BRANCH  53  55
HETATM   55  O   UNK     0     -27.347 -25.274  21.154  0.00  0.00    -0.776 OA
HETATM   56  H   UNK     0     -28.310 -25.513  21.169  0.00  0.00     0.167 HD
ENDBRANCH  53  55
ENDBRANCH  52  53
ENDBRANCH  51  52
ENDBRANCH  18  51
TORSDOF 16
ENDMDL
MODEL 8
REMARK VINA RESULT:      -9.2      3.655      5.933
REMARK  16 active torsions:
REMARK  status: ('A' for Active; 'I' for Inactive)
REMARK    1  A    between atoms: C_6  and  C_7 
REMARK    2  A    between atoms: C_7  and  C_8 
REMARK    3  A    between atoms: C_8  and  C_9 
REMARK    4  A    between atoms: C_9  and  O_11 
REMARK    5  A    between atoms: C_16  and  C_17 
REMARK    6  A    between atoms: C_17  and  C_18 
REMARK    7  A    between atoms: C_18  and  C_19 
REMARK    8  A    between atoms: C_19  and  O_21 
REMARK    9  A    between atoms: C_28  and  C_29 
REMARK   10  A    between atoms: C_29  and  C_30 
REMARK   11  A    between atoms: C_30  and  C_31 
REMARK   12  A    between atoms: C_31  and  O_33 
REMARK   13  A    between atoms: C_42  and  C_43 
REMARK   14  A    between atoms: C_43  and  C_44 
REMARK   15  A    between atoms: C_44  and  C_45 
REMARK   16  A    between atoms: C_45  and  O_47 
ROOT
HETATM    1  C   UNK     0     -21.257 -29.321  16.981  0.00  0.00     0.051 C 
HETATM    2  C   UNK     0     -22.122 -28.087  17.140  0.00  0.00    -0.031 A 
HETATM    3  C   UNK     0     -22.972 -27.736  18.177  0.00  0.00     0.021 A 
HETATM    4  N   UNK     0     -23.566 -26.556  17.879  0.00  0.00    -0.361 N 
HETATM    5  C   UNK     0     -23.107 -26.144  16.680  0.00  0.00     0.022 A 
HETATM    6  C   UNK     0     -22.204 -27.079  16.187  0.00  0.00    -0.027 A 
HETATM    7  C   UNK     0     -23.376 -24.867  15.945  0.00  0.00     0.115 C 
HETATM    8  C   UNK     0     -23.375 -23.593  16.772  0.00  0.00     0.021 A 
HETATM    9  N   UNK     0     -22.606 -23.280  17.826  0.00  0.00    -0.361 N 
HETATM   10  C   UNK     0     -23.014 -22.085  18.302  0.00  0.00     0.022 A 
HETATM   11  C   UNK     0     -24.069 -21.611  17.528  0.00  0.00    -0.027 A 
HETATM   12  C   UNK     0     -24.302 -22.556  16.562  0.00  0.00    -0.031 A 
HETATM   13  C   UNK     0     -25.360 -22.464  15.486  0.00  0.00     0.051 C 
HETATM   14  C   UNK     0     -22.464 -21.370  19.533  0.00  0.00     0.115 C 
HETATM   15  C   UNK     0     -22.631 -22.152  20.826  0.00  0.00     0.021 A 
HETATM   16  N   UNK     0     -22.158 -23.380  21.109  0.00  0.00    -0.361 N 
HETATM   17  C   UNK     0     -22.580 -23.743  22.323  0.00  0.00     0.022 A 
HETATM   18  C   UNK     0     -23.357 -22.698  22.860  0.00  0.00    -0.027 A 
HETATM   19  C   UNK     0     -23.380 -21.707  21.913  0.00  0.00    -0.031 A 
HETATM   20  C   UNK     0     -24.083 -20.375  22.102  0.00  0.00     0.051 C 
HETATM   21  C   UNK     0     -22.387 -25.044  23.070  0.00  0.00     0.115 C 
HETATM   22  C   UNK     0     -22.342 -26.316  22.256  0.00  0.00     0.022 A 
HETATM   23  N   UNK     0     -23.092 -26.652  21.199  0.00  0.00    -0.361 N 
HETATM   24  C   UNK     0     -22.618 -27.808  20.693  0.00  0.00     0.021 A 
HETATM   25  C   UNK     0     -21.541 -28.232  21.449  0.00  0.00    -0.031 A 
HETATM   26  C   UNK     0     -20.706 -29.487  21.300  0.00  0.00     0.051 C 
HETATM   27  C   UNK     0     -21.345 -27.293  22.455  0.00  0.00    -0.027 A 
HETATM   28  C   UNK     0     -23.082 -28.536  19.443  0.00  0.00     0.115 C 
HETATM   29  H   UNK     0     -24.336 -26.043  18.501  0.00  0.00     0.165 HD
HETATM   30  H   UNK     0     -21.741 -23.877  18.205  0.00  0.00     0.165 HD
HETATM   31  H   UNK     0     -21.473 -23.985  20.460  0.00  0.00     0.165 HD
HETATM   32  H   UNK     0     -23.993 -26.099  20.826  0.00  0.00     0.165 HD
ENDROOT
BRANCH   6  33
HETATM   33  C   UNK     0     -21.424 -27.090  14.897  0.00  0.00     0.051 C 
BRANCH  33  34
HETATM   34  C   UNK     0     -22.350 -27.254  13.714  0.00  0.00     0.114 C 
BRANCH  34  35
HETATM   35  C   UNK     0     -22.648 -28.709  13.580  0.00  0.00     0.139 C 
HETATM   36  O   UNK     0     -21.814 -29.482  13.026  0.00  0.00    -0.650 OA
BRANCH  35  37
HETATM   37  O   UNK     0     -23.827 -29.278  14.047  0.00  0.00    -0.776 OA
HETATM   38  H   UNK     0     -24.450 -28.785  14.666  0.00  0.00     0.167 HD
ENDBRANCH  35  37
ENDBRANCH  34  35
ENDBRANCH  33  34
ENDBRANCH   6  33
BRANCH  27  39
HETATM   39  C   UNK     0     -20.313 -27.445  23.517  0.00  0.00     0.051 C 
BRANCH  39  40
HETATM   40  C   UNK     0     -19.150 -26.559  23.486  0.00  0.00     0.114 C 
BRANCH  40  41
HETATM   41  C   UNK     0     -17.861 -26.996  22.997  0.00  0.00     0.139 C 
HETATM   42  O   UNK     0     -17.714 -27.932  22.200  0.00  0.00    -0.650 OA
BRANCH  41  43
HETATM   43  O   UNK     0     -16.688 -26.325  23.447  0.00  0.00    -0.776 OA
HETATM   44  H   UNK     0     -16.242 -25.746  22.746  0.00  0.00     0.167 HD
ENDBRANCH  41  43
ENDBRANCH  40  41
ENDBRANCH  39  40
ENDBRANCH  27  39
BRANCH  11  45
HETATM   45  C   UNK     0     -24.839 -20.325  17.672  0.00  0.00     0.051 C 
BRANCH  45  46
HETATM   46  C   UNK     0     -25.995 -20.411  18.601  0.00  0.00     0.114 C 
BRANCH  46  47
HETATM   47  C   UNK     0     -26.174 -19.061  19.208  0.00  0.00     0.139 C 
HETATM   48  O   UNK     0     -25.171 -18.360  19.401  0.00  0.00    -0.650 OA
BRANCH  47  49
HETATM   49  O   UNK     0     -27.422 -18.603  19.547  0.00  0.00    -0.776 OA
HETATM   50  H   UNK     0     -28.279 -19.040  19.187  0.00  0.00     0.167 HD
ENDBRANCH  47  49
ENDBRANCH  46  47
ENDBRANCH  45  46
ENDBRANCH  11  45
BRANCH  18  51
HETATM   51  C   UNK     0     -24.023 -22.638  24.210  0.00  0.00     0.051 C 
BRANCH  51  52
HETATM   52  C   UNK     0     -25.364 -23.340  24.055  0.00  0.00     0.114 C 
BRANCH  52  53
HETATM   53  C   UNK     0     -26.491 -22.389  24.102  0.00  0.00     0.139 C 
HETATM   54  O   UNK     0     -26.430 -21.388  24.833  0.00  0.00    -0.650 OA
BRANCH  53  55
HETATM   55  O   UNK     0     -27.607 -22.620  23.335  0.00  0.00    -0.776 OA
HETATM   56  H   UNK     0     -27.703 -22.421  22.367  0.00  0.00     0.167 HD
ENDBRANCH  53  55
ENDBRANCH  52  53
ENDBRANCH  51  52
ENDBRANCH  18  51
TORSDOF 16
ENDMDL
MODEL 9
REMARK VINA RESULT:      -9.1      1.445      7.062
REMARK  16 active torsions:
REMARK  status: ('A' for Active; 'I' for Inactive)
REMARK    1  A    between atoms: C_6  and  C_7 
REMARK    2  A    between atoms: C_7  and  C_8 
REMARK    3  A    between atoms: C_8  and  C_9 
REMARK    4  A    between atoms: C_9  and  O_11 
REMARK    5  A    between atoms: C_16  and  C_17 
REMARK    6  A    between atoms: C_17  and  C_18 
REMARK    7  A    between atoms: C_18  and  C_19 
REMARK    8  A    between atoms: C_19  and  O_21 
REMARK    9  A    between atoms: C_28  and  C_29 
REMARK   10  A    between atoms: C_29  and  C_30 
REMARK   11  A    between atoms: C_30  and  C_31 
REMARK   12  A    between atoms: C_31  and  O_33 
REMARK   13  A    between atoms: C_42  and  C_43 
REMARK   14  A    between atoms: C_43  and  C_44 
REMARK   15  A    between atoms: C_44  and  C_45 
REMARK   16  A    between atoms: C_45  and  O_47 
ROOT
HETATM    1  C   UNK     0     -21.702 -17.546  25.948  0.00  0.00     0.051 C 
HETATM    2  C   UNK     0     -21.865 -18.436  24.732  0.00  0.00    -0.031 A 
HETATM    3  C   UNK     0     -20.980 -19.355  24.190  0.00  0.00     0.021 A 
HETATM    4  N   UNK     0     -21.535 -19.900  23.081  0.00  0.00    -0.361 N 
HETATM    5  C   UNK     0     -22.757 -19.354  22.910  0.00  0.00     0.022 A 
HETATM    6  C   UNK     0     -22.994 -18.432  23.923  0.00  0.00    -0.027 A 
HETATM    7  C   UNK     0     -23.810 -19.677  21.896  0.00  0.00     0.115 C 
HETATM    8  C   UNK     0     -24.045 -21.148  21.602  0.00  0.00     0.021 A 
HETATM    9  N   UNK     0     -23.988 -22.189  22.447  0.00  0.00    -0.361 N 
HETATM   10  C   UNK     0     -24.175 -23.319  21.733  0.00  0.00     0.022 A 
HETATM   11  C   UNK     0     -24.367 -22.997  20.393  0.00  0.00    -0.027 A 
HETATM   12  C   UNK     0     -24.286 -21.630  20.303  0.00  0.00    -0.031 A 
HETATM   13  C   UNK     0     -24.439 -20.827  19.031  0.00  0.00     0.051 C 
HETATM   14  C   UNK     0     -24.128 -24.745  22.275  0.00  0.00     0.115 C 
HETATM   15  C   UNK     0     -22.788 -25.129  22.883  0.00  0.00     0.021 A 
HETATM   16  N   UNK     0     -22.149 -24.531  23.906  0.00  0.00    -0.361 N 
HETATM   17  C   UNK     0     -20.968 -25.124  24.091  0.00  0.00     0.022 A 
HETATM   18  C   UNK     0     -20.835 -26.164  23.151  0.00  0.00    -0.027 A 
HETATM   19  C   UNK     0     -21.982 -26.157  22.401  0.00  0.00    -0.031 A 
HETATM   20  C   UNK     0     -22.268 -27.149  21.288  0.00  0.00     0.051 C 
HETATM   21  C   UNK     0     -19.853 -24.788  25.056  0.00  0.00     0.115 C 
HETATM   22  C   UNK     0     -19.636 -23.331  25.391  0.00  0.00     0.022 A 
HETATM   23  N   UNK     0     -19.690 -22.273  24.571  0.00  0.00    -0.361 N 
HETATM   24  C   UNK     0     -19.579 -21.154  25.315  0.00  0.00     0.021 A 
HETATM   25  C   UNK     0     -19.440 -21.500  26.645  0.00  0.00    -0.031 A 
HETATM   26  C   UNK     0     -19.243 -20.601  27.848  0.00  0.00     0.051 C 
HETATM   27  C   UNK     0     -19.473 -22.888  26.719  0.00  0.00    -0.027 A 
HETATM   28  C   UNK     0     -19.677 -19.713  24.846  0.00  0.00     0.115 C 
HETATM   29  H   UNK     0     -21.043 -20.637  22.405  0.00  0.00     0.165 HD
HETATM   30  H   UNK     0     -23.866 -22.126  23.556  0.00  0.00     0.165 HD
HETATM   31  H   UNK     0     -22.560 -23.704  24.542  0.00  0.00     0.165 HD
HETATM   32  H   UNK     0     -19.764 -22.308  23.453  0.00  0.00     0.165 HD
ENDROOT
BRANCH   6  33
HETATM   33  C   UNK     0     -24.195 -17.557  24.177  0.00  0.00     0.051 C 
BRANCH  33  34
HETATM   34  C   UNK     0     -24.051 -16.231  23.469  0.00  0.00     0.114 C 
BRANCH  34  35
HETATM   35  C   UNK     0     -23.887 -15.181  24.515  0.00  0.00     0.139 C 
HETATM   36  O   UNK     0     -24.444 -15.314  25.643  0.00  0.00    -0.650 OA
BRANCH  35  37
HETATM   37  O   UNK     0     -23.133 -14.032  24.312  0.00  0.00    -0.776 OA
HETATM   38  H   UNK     0     -23.540 -13.111  24.349  0.00  0.00     0.167 HD
ENDBRANCH  35  37
ENDBRANCH  34  35
ENDBRANCH  33  34
ENDBRANCH   6  33
BRANCH  27  39
HETATM   39  C   UNK     0     -19.280 -23.636  27.991  0.00  0.00     0.051 C 
BRANCH  39  40
HETATM   40  C   UNK     0     -17.951 -24.170  28.287  0.00  0.00     0.114 C 
BRANCH  40  41
HETATM   41  C   UNK     0     -16.812 -23.919  27.434  0.00  0.00     0.139 C 
HETATM   42  O   UNK     0     -16.382 -24.737  26.609  0.00  0.00    -0.650 OA
BRANCH  41  43
HETATM   43  O   UNK     0     -16.136 -22.670  27.533  0.00  0.00    -0.776 OA
HETATM   44  H   UNK     0     -16.142 -22.121  26.682  0.00  0.00     0.167 HD
ENDBRANCH  41  43
ENDBRANCH  40  41
ENDBRANCH  39  40
ENDBRANCH  27  39
BRANCH  11  45
HETATM   45  C   UNK     0     -24.619 -23.918  19.230  0.00  0.00     0.051 C 
BRANCH  45  46
HETATM   46  C   UNK     0     -23.399 -24.585  18.709  0.00  0.00     0.114 C 
BRANCH  46  47
HETATM   47  C   UNK     0     -22.940 -23.803  17.525  0.00  0.00     0.139 C 
HETATM   48  O   UNK     0     -21.749 -23.467  17.462  0.00  0.00    -0.650 OA
BRANCH  47  49
HETATM   49  O   UNK     0     -23.816 -23.461  16.526  0.00  0.00    -0.776 OA
HETATM   50  H   UNK     0     -24.408 -22.624  16.583  0.00  0.00     0.167 HD
ENDBRANCH  47  49
ENDBRANCH  46  47
ENDBRANCH  45  46
ENDBRANCH  11  45
BRANCH  18  51
HETATM   51  C   UNK     0     -19.686 -27.125  22.989  0.00  0.00     0.051 C 
BRANCH  51  52
HETATM   52  C   UNK     0     -19.983 -28.302  23.908  0.00  0.00     0.114 C 
BRANCH  52  53
HETATM   53  C   UNK     0     -18.751 -28.867  24.491  0.00  0.00     0.139 C 
HETATM   54  O   UNK     0     -17.942 -29.472  23.770  0.00  0.00    -0.650 OA
BRANCH  53  55
HETATM   55  O   UNK     0     -18.508 -28.723  25.836  0.00  0.00    -0.776 OA
HETATM   56  H   UNK     0     -17.961 -28.010  26.257  0.00  0.00     0.167 HD
ENDBRANCH  53  55
ENDBRANCH  52  53
ENDBRANCH  51  52
ENDBRANCH  18  51
TORSDOF 16
ENDMDL
MODEL 10
REMARK VINA RESULT:      -9.0      1.879      7.561
REMARK  16 active torsions:
REMARK  status: ('A' for Active; 'I' for Inactive)
REMARK    1  A    between atoms: C_6  and  C_7 
REMARK    2  A    between atoms: C_7  and  C_8 
REMARK    3  A    between atoms: C_8  and  C_9 
REMARK    4  A    between atoms: C_9  and  O_11 
REMARK    5  A    between atoms: C_16  and  C_17 
REMARK    6  A    between atoms: C_17  and  C_18 
REMARK    7  A    between atoms: C_18  and  C_19 
REMARK    8  A    between atoms: C_19  and  O_21 
REMARK    9  A    between atoms: C_28  and  C_29 
REMARK   10  A    between atoms: C_29  and  C_30 
REMARK   11  A    between atoms: C_30  and  C_31 
REMARK   12  A    between atoms: C_31  and  O_33 
REMARK   13  A    between atoms: C_42  and  C_43 
REMARK   14  A    between atoms: C_43  and  C_44 
REMARK   15  A    between atoms: C_44  and  C_45 
REMARK   16  A    between atoms: C_45  and  O_47 
ROOT
HETATM    1  C   UNK     0     -21.659 -16.319  25.971  0.00  0.00     0.051 C 
HETATM    2  C   UNK     0     -21.873 -17.366  24.897  0.00  0.00    -0.031 A 
HETATM    3  C   UNK     0     -20.976 -18.279  24.368  0.00  0.00     0.021 A 
HETATM    4  N   UNK     0     -21.596 -19.001  23.405  0.00  0.00    -0.361 N 
HETATM    5  C   UNK     0     -22.872 -18.572  23.314  0.00  0.00     0.022 A 
HETATM    6  C   UNK     0     -23.079 -17.548  24.232  0.00  0.00    -0.027 A 
HETATM    7  C   UNK     0     -23.996 -19.098  22.477  0.00  0.00     0.115 C 
HETATM    8  C   UNK     0     -24.132 -20.608  22.390  0.00  0.00     0.021 A 
HETATM    9  N   UNK     0     -23.894 -21.526  23.340  0.00  0.00    -0.361 N 
HETATM   10  C   UNK     0     -24.057 -22.749  22.792  0.00  0.00     0.022 A 
HETATM   11  C   UNK     0     -24.419 -22.615  21.455  0.00  0.00    -0.027 A 
HETATM   12  C   UNK     0     -24.468 -21.269  21.195  0.00  0.00    -0.031 A 
HETATM   13  C   UNK     0     -24.827 -20.649  19.863  0.00  0.00     0.051 C 
HETATM   14  C   UNK     0     -23.827 -24.087  23.489  0.00  0.00     0.115 C 
HETATM   15  C   UNK     0     -22.401 -24.290  23.977  0.00  0.00     0.021 A 
HETATM   16  N   UNK     0     -21.711 -23.521  24.839  0.00  0.00    -0.361 N 
HETATM   17  C   UNK     0     -20.469 -23.996  24.954  0.00  0.00     0.022 A 
HETATM   18  C   UNK     0     -20.347 -25.136  24.134  0.00  0.00    -0.027 A 
HETATM   19  C   UNK     0     -21.565 -25.310  23.529  0.00  0.00    -0.031 A 
HETATM   20  C   UNK     0     -21.881 -26.454  22.583  0.00  0.00     0.051 C 
HETATM   21  C   UNK     0     -19.290 -23.459  25.734  0.00  0.00     0.115 C 
HETATM   22  C   UNK     0     -19.167 -21.959  25.866  0.00  0.00     0.022 A 
HETATM   23  N   UNK     0     -19.401 -21.022  24.938  0.00  0.00    -0.361 N 
HETATM   24  C   UNK     0     -19.309 -19.812  25.526  0.00  0.00     0.021 A 
HETATM   25  C   UNK     0     -18.998 -19.974  26.862  0.00  0.00    -0.031 A 
HETATM   26  C   UNK     0     -18.753 -18.916  27.918  0.00  0.00     0.051 C 
HETATM   27  C   UNK     0     -18.901 -21.339  27.104  0.00  0.00    -0.027 A 
HETATM   28  C   UNK     0     -19.583 -18.454  24.904  0.00  0.00     0.115 C 
HETATM   29  H   UNK     0     -21.118 -19.780  22.767  0.00  0.00     0.165 HD
HETATM   30  H   UNK     0     -23.659 -21.313  24.412  0.00  0.00     0.165 HD
HETATM   31  H   UNK     0     -22.122 -22.652  25.417  0.00  0.00     0.165 HD
HETATM   32  H   UNK     0     -19.592 -21.205  23.849  0.00  0.00     0.165 HD
ENDROOT
BRANCH   6  33
HETATM   33  C   UNK     0     -24.318 -16.739  24.520  0.00  0.00     0.051 C 
BRANCH  33  34
HETATM   34  C   UNK     0     -23.990 -15.266  24.592  0.00  0.00     0.114 C 
BRANCH  34  35
HETATM   35  C   UNK     0     -24.895 -14.656  25.608  0.00  0.00     0.139 C 
HETATM   36  O   UNK     0     -24.414 -13.983  26.566  0.00  0.00    -0.650 OA
BRANCH  35  37
HETATM   37  O   UNK     0     -26.277 -14.789  25.558  0.00  0.00    -0.776 OA
HETATM   38  H   UNK     0     -26.767 -15.487  26.094  0.00  0.00     0.167 HD
ENDBRANCH  35  37
ENDBRANCH  34  35
ENDBRANCH  33  34
ENDBRANCH   6  33
BRANCH  27  39
HETATM   39  C   UNK     0     -18.508 -21.903  28.424  0.00  0.00     0.051 C 
BRANCH  39  40
HETATM   40  C   UNK     0     -19.566 -22.329  29.339  0.00  0.00     0.114 C 
BRANCH  40  41
HETATM   41  C   UNK     0     -20.254 -23.592  29.188  0.00  0.00     0.139 C 
HETATM   42  O   UNK     0     -21.413 -23.693  28.764  0.00  0.00    -0.650 OA
BRANCH  41  43
HETATM   43  O   UNK     0     -19.577 -24.794  29.541  0.00  0.00    -0.776 OA
HETATM   44  H   UNK     0     -20.151 -25.469  30.031  0.00  0.00     0.167 HD
ENDBRANCH  41  43
ENDBRANCH  40  41
ENDBRANCH  39  40
ENDBRANCH  27  39
BRANCH  11  45
HETATM   45  C   UNK     0     -24.714 -23.693  20.447  0.00  0.00     0.051 C 
BRANCH  45  46
HETATM   46  C   UNK     0     -23.503 -24.297  19.834  0.00  0.00     0.114 C 
BRANCH  46  47
HETATM   47  C   UNK     0     -23.825 -25.722  19.533  0.00  0.00     0.139 C 
HETATM   48  O   UNK     0     -24.544 -26.347  20.324  0.00  0.00    -0.650 OA
BRANCH  47  49
HETATM   49  O   UNK     0     -23.334 -26.330  18.405  0.00  0.00    -0.776 OA
HETATM   50  H   UNK     0     -22.644 -27.089  18.451  0.00  0.00     0.167 HD
ENDBRANCH  47  49
ENDBRANCH  46  47
ENDBRANCH  45  46
ENDBRANCH  11  45
BRANCH  18  51
HETATM   51  C   UNK     0     -19.143 -26.023  23.954  0.00  0.00     0.051 C 
BRANCH  51  52
HETATM   52  C   UNK     0     -18.128 -25.209  23.165  0.00  0.00     0.114 C 
BRANCH  52  53
HETATM   53  C   UNK     0     -16.744 -25.636  23.445  0.00  0.00     0.139 C 
HETATM   54  O   UNK     0     -16.314 -25.627  24.609  0.00  0.00    -0.650 OA
BRANCH  53  55
HETATM   55  O   UNK     0     -15.935 -26.040  22.411  0.00  0.00    -0.776 OA
HETATM   56  H   UNK     0     -16.226 -26.538  21.602  0.00  0.00     0.167 HD
ENDBRANCH  53  55
ENDBRANCH  52  53
ENDBRANCH  51  52
ENDBRANCH  18  51
TORSDOF 16
ENDMDL
MODEL 11
REMARK VINA RESULT:      -8.7      4.768     10.233
REMARK  16 active torsions:
REMARK  status: ('A' for Active; 'I' for Inactive)
REMARK    1  A    between atoms: C_6  and  C_7 
REMARK    2  A    between atoms: C_7  and  C_8 
REMARK    3  A    between atoms: C_8  and  C_9 
REMARK    4  A    between atoms: C_9  and  O_11 
REMARK    5  A    between atoms: C_16  and  C_17 
REMARK    6  A    between atoms: C_17  and  C_18 
REMARK    7  A    between atoms: C_18  and  C_19 
REMARK    8  A    between atoms: C_19  and  O_21 
REMARK    9  A    between atoms: C_28  and  C_29 
REMARK   10  A    between atoms: C_29  and  C_30 
REMARK   11  A    between atoms: C_30  and  C_31 
REMARK   12  A    between atoms: C_31  and  O_33 
REMARK   13  A    between atoms: C_42  and  C_43 
REMARK   14  A    between atoms: C_43  and  C_44 
REMARK   15  A    between atoms: C_44  and  C_45 
REMARK   16  A    between atoms: C_45  and  O_47 
ROOT
HETATM    1  C   UNK     0     -20.557 -29.486  20.804  0.00  0.00     0.051 C 
HETATM    2  C   UNK     0     -21.461 -29.114  19.646  0.00  0.00    -0.031 A 
HETATM    3  C   UNK     0     -22.652 -28.405  19.653  0.00  0.00     0.021 A 
HETATM    4  N   UNK     0     -23.132 -28.337  18.388  0.00  0.00    -0.361 N 
HETATM    5  C   UNK     0     -22.268 -28.980  17.575  0.00  0.00     0.022 A 
HETATM    6  C   UNK     0     -21.213 -29.480  18.330  0.00  0.00    -0.027 A 
HETATM    7  C   UNK     0     -22.285 -29.113  16.084  0.00  0.00     0.115 C 
HETATM    8  C   UNK     0     -22.642 -27.868  15.292  0.00  0.00     0.021 A 
HETATM    9  N   UNK     0     -22.340 -26.589  15.564  0.00  0.00    -0.361 N 
HETATM   10  C   UNK     0     -22.940 -25.811  14.638  0.00  0.00     0.022 A 
HETATM   11  C   UNK     0     -23.641 -26.611  13.741  0.00  0.00    -0.027 A 
HETATM   12  C   UNK     0     -23.457 -27.909  14.147  0.00  0.00    -0.031 A 
HETATM   13  C   UNK     0     -24.033 -29.128  13.463  0.00  0.00     0.051 C 
HETATM   14  C   UNK     0     -22.922 -24.286  14.594  0.00  0.00     0.115 C 
HETATM   15  C   UNK     0     -23.537 -23.627  15.819  0.00  0.00     0.021 A 
HETATM   16  N   UNK     0     -23.163 -23.771  17.104  0.00  0.00    -0.361 N 
HETATM   17  C   UNK     0     -23.999 -23.081  17.883  0.00  0.00     0.022 A 
HETATM   18  C   UNK     0     -24.958 -22.450  17.066  0.00  0.00    -0.027 A 
HETATM   19  C   UNK     0     -24.657 -22.799  15.775  0.00  0.00    -0.031 A 
HETATM   20  C   UNK     0     -25.427 -22.302  14.565  0.00  0.00     0.051 C 
HETATM   21  C   UNK     0     -24.057 -22.974  19.390  0.00  0.00     0.115 C 
HETATM   22  C   UNK     0     -23.662 -24.192  20.192  0.00  0.00     0.022 A 
HETATM   23  N   UNK     0     -23.945 -25.477  19.943  0.00  0.00    -0.361 N 
HETATM   24  C   UNK     0     -23.273 -26.238  20.830  0.00  0.00     0.021 A 
HETATM   25  C   UNK     0     -22.548 -25.423  21.678  0.00  0.00    -0.031 A 
HETATM   26  C   UNK     0     -21.675 -25.807  22.854  0.00  0.00     0.051 C 
HETATM   27  C   UNK     0     -22.781 -24.109  21.289  0.00  0.00    -0.027 A 
HETATM   28  C   UNK     0     -23.204 -27.755  20.890  0.00  0.00     0.115 C 
HETATM   29  H   UNK     0     -24.097 -27.870  18.085  0.00  0.00     0.165 HD
HETATM   30  H   UNK     0     -21.662 -26.235  16.378  0.00  0.00     0.165 HD
HETATM   31  H   UNK     0     -22.262 -24.331  17.465  0.00  0.00     0.165 HD
HETATM   32  H   UNK     0     -24.657 -25.858  19.165  0.00  0.00     0.165 HD
ENDROOT
BRANCH   6  33
HETATM   33  C   UNK     0     -20.004 -30.273  17.901  0.00  0.00     0.051 C 
BRANCH  33  34
HETATM   34  C   UNK     0     -20.301 -31.753  17.917  0.00  0.00     0.114 C 
BRANCH  34  35
HETATM   35  C   UNK     0     -19.879 -32.307  16.599  0.00  0.00     0.139 C 
HETATM   36  O   UNK     0     -18.785 -32.934  16.491  0.00  0.00    -0.650 OA
BRANCH  35  37
HETATM   37  O   UNK     0     -20.647 -32.171  15.449  0.00  0.00    -0.776 OA
HETATM   38  H   UNK     0     -20.289 -32.401  14.536  0.00  0.00     0.167 HD
ENDBRANCH  35  37
ENDBRANCH  34  35
ENDBRANCH  33  34
ENDBRANCH   6  33
BRANCH  27  39
HETATM   39  C   UNK     0     -22.222 -22.937  22.017  0.00  0.00     0.051 C 
BRANCH  39  40
HETATM   40  C   UNK     0     -23.154 -21.984  22.617  0.00  0.00     0.114 C 
BRANCH  40  41
HETATM   41  C   UNK     0     -24.380 -22.404  23.257  0.00  0.00     0.139 C 
HETATM   42  O   UNK     0     -25.474 -22.444  22.679  0.00  0.00    -0.650 OA
BRANCH  41  43
HETATM   43  O   UNK     0     -24.346 -22.795  24.626  0.00  0.00    -0.776 OA
HETATM   44  H   UNK     0     -24.336 -23.797  24.775  0.00  0.00     0.167 HD
ENDBRANCH  41  43
ENDBRANCH  40  41
ENDBRANCH  39  40
ENDBRANCH  27  39
BRANCH  11  45
HETATM   45  C   UNK     0     -24.453 -26.196  12.543  0.00  0.00     0.051 C 
BRANCH  45  46
HETATM   46  C   UNK     0     -25.838 -25.769  12.869  0.00  0.00     0.114 C 
BRANCH  46  47
HETATM   47  C   UNK     0     -26.751 -26.864  12.433  0.00  0.00     0.139 C 
HETATM   48  O   UNK     0     -26.509 -27.449  11.368  0.00  0.00    -0.650 OA
BRANCH  47  49
HETATM   49  O   UNK     0     -27.838 -27.217  13.193  0.00  0.00    -0.776 OA
HETATM   50  H   UNK     0     -28.521 -27.915  12.876  0.00  0.00     0.167 HD
ENDBRANCH  47  49
ENDBRANCH  46  47
ENDBRANCH  45  46
ENDBRANCH  11  45
BRANCH  18  51
HETATM   51  C   UNK     0     -26.087 -21.547  17.491  0.00  0.00     0.051 C 
BRANCH  51  52
HETATM   52  C   UNK     0     -25.443 -20.247  17.950  0.00  0.00     0.114 C 
BRANCH  52  53
HETATM   53  C   UNK     0     -26.045 -19.748  19.202  0.00  0.00     0.139 C 
HETATM   54  O   UNK     0     -26.880 -18.831  19.166  0.00  0.00    -0.650 OA
BRANCH  53  55
HETATM   55  O   UNK     0     -25.672 -20.301  20.403  0.00  0.00    -0.776 OA
HETATM   56  H   UNK     0     -25.098 -21.101  20.524  0.00  0.00     0.167 HD
ENDBRANCH  53  55
ENDBRANCH  52  53
ENDBRANCH  51  52
ENDBRANCH  18  51
TORSDOF 16
ENDMDL
MODEL 12
REMARK VINA RESULT:      -8.6      3.557      8.691
REMARK  16 active torsions:
REMARK  status: ('A' for Active; 'I' for Inactive)
REMARK    1  A    between atoms: C_6  and  C_7 
REMARK    2  A    between atoms: C_7  and  C_8 
REMARK    3  A    between atoms: C_8  and  C_9 
REMARK    4  A    between atoms: C_9  and  O_11 
REMARK    5  A    between atoms: C_16  and  C_17 
REMARK    6  A    between atoms: C_17  and  C_18 
REMARK    7  A    between atoms: C_18  and  C_19 
REMARK    8  A    between atoms: C_19  and  O_21 
REMARK    9  A    between atoms: C_28  and  C_29 
REMARK   10  A    between atoms: C_29  and  C_30 
REMARK   11  A    between atoms: C_30  and  C_31 
REMARK   12  A    between atoms: C_31  and  O_33 
REMARK   13  A    between atoms: C_42  and  C_43 
REMARK   14  A    between atoms: C_43  and  C_44 
REMARK   15  A    between atoms: C_44  and  C_45 
REMARK   16  A    between atoms: C_45  and  O_47 
ROOT
HETATM    1  C   UNK     0     -24.877 -21.306  15.844  0.00  0.00     0.051 C 
HETATM    2  C   UNK     0     -23.983 -22.497  16.122  0.00  0.00    -0.031 A 
HETATM    3  C   UNK     0     -22.992 -22.648  17.080  0.00  0.00     0.021 A 
HETATM    4  N   UNK     0     -22.429 -23.872  16.942  0.00  0.00    -0.361 N 
HETATM    5  C   UNK     0     -23.044 -24.506  15.922  0.00  0.00     0.022 A 
HETATM    6  C   UNK     0     -24.020 -23.673  15.385  0.00  0.00    -0.027 A 
HETATM    7  C   UNK     0     -22.863 -25.906  15.425  0.00  0.00     0.115 C 
HETATM    8  C   UNK     0     -22.731 -26.992  16.478  0.00  0.00     0.021 A 
HETATM    9  N   UNK     0     -23.343 -27.080  17.669  0.00  0.00    -0.361 N 
HETATM   10  C   UNK     0     -22.856 -28.164  18.311  0.00  0.00     0.022 A 
HETATM   11  C   UNK     0     -21.912 -28.796  17.507  0.00  0.00    -0.027 A 
HETATM   12  C   UNK     0     -21.829 -28.063  16.351  0.00  0.00    -0.031 A 
HETATM   13  C   UNK     0     -20.928 -28.381  15.178  0.00  0.00     0.051 C 
HETATM   14  C   UNK     0     -23.220 -28.614  19.723  0.00  0.00     0.115 C 
HETATM   15  C   UNK     0     -22.887 -27.594  20.800  0.00  0.00     0.021 A 
HETATM   16  N   UNK     0     -23.332 -26.328  20.898  0.00  0.00    -0.361 N 
HETATM   17  C   UNK     0     -22.752 -25.739  21.946  0.00  0.00     0.022 A 
HETATM   18  C   UNK     0     -21.893 -26.669  22.565  0.00  0.00    -0.027 A 
HETATM   19  C   UNK     0     -21.988 -27.827  21.839  0.00  0.00    -0.031 A 
HETATM   20  C   UNK     0     -21.247 -29.105  22.188  0.00  0.00     0.051 C 
HETATM   21  C   UNK     0     -22.856 -24.314  22.441  0.00  0.00     0.115 C 
HETATM   22  C   UNK     0     -23.032 -23.227  21.407  0.00  0.00     0.022 A 
HETATM   23  N   UNK     0     -22.439 -23.116  20.211  0.00  0.00    -0.361 N 
HETATM   24  C   UNK     0     -22.995 -22.076  19.557  0.00  0.00     0.021 A 
HETATM   25  C   UNK     0     -23.962 -21.497  20.356  0.00  0.00    -0.031 A 
HETATM   26  C   UNK     0     -24.826 -20.284  20.080  0.00  0.00     0.051 C 
HETATM   27  C   UNK     0     -24.004 -22.216  21.545  0.00  0.00    -0.027 A 
HETATM   28  C   UNK     0     -22.719 -21.616  18.136  0.00  0.00     0.115 C 
HETATM   29  H   UNK     0     -21.573 -24.263  17.540  0.00  0.00     0.165 HD
HETATM   30  H   UNK     0     -24.155 -26.408  18.039  0.00  0.00     0.165 HD
HETATM   31  H   UNK     0     -24.109 -25.853  20.244  0.00  0.00     0.165 HD
HETATM   32  H   UNK     0     -21.592 -23.745  19.833  0.00  0.00     0.165 HD
ENDROOT
BRANCH   6  33
HETATM   33  C   UNK     0     -24.970 -23.907  14.239  0.00  0.00     0.051 C 
BRANCH  33  34
HETATM   34  C   UNK     0     -24.376 -23.411  12.942  0.00  0.00     0.114 C 
BRANCH  34  35
HETATM   35  C   UNK     0     -25.399 -22.549  12.282  0.00  0.00     0.139 C 
HETATM   36  O   UNK     0     -26.474 -22.262  12.885  0.00  0.00    -0.650 OA
BRANCH  35  37
HETATM   37  O   UNK     0     -25.229 -22.027  11.006  0.00  0.00    -0.776 OA
HETATM   38  H   UNK     0     -24.317 -21.832  10.626  0.00  0.00     0.167 HD
ENDBRANCH  35  37
ENDBRANCH  34  35
ENDBRANCH  33  34
ENDBRANCH   6  33
BRANCH  27  39
HETATM   39  C   UNK     0     -24.881 -21.843  22.688  0.00  0.00     0.051 C 
BRANCH  39  40
HETATM   40  C   UNK     0     -24.340 -20.954  23.717  0.00  0.00     0.114 C 
BRANCH  40  41
HETATM   41  C   UNK     0     -23.050 -20.315  23.583  0.00  0.00     0.139 C 
HETATM   42  O   UNK     0     -22.894 -19.186  23.098  0.00  0.00    -0.650 OA
BRANCH  41  43
HETATM   43  O   UNK     0     -21.887 -21.007  24.026  0.00  0.00    -0.776 OA
HETATM   44  H   UNK     0     -21.339 -21.423  23.283  0.00  0.00     0.167 HD
ENDBRANCH  41  43
ENDBRANCH  40  41
ENDBRANCH  39  40
ENDBRANCH  27  39
BRANCH  11  45
HETATM   45  C   UNK     0     -21.113 -30.039  17.793  0.00  0.00     0.051 C 
BRANCH  45  46
HETATM   46  C   UNK     0     -20.077 -29.865  18.843  0.00  0.00     0.114 C 
BRANCH  46  47
HETATM   47  C   UNK     0     -19.349 -31.161  18.965  0.00  0.00     0.139 C 
HETATM   48  O   UNK     0     -18.541 -31.471  18.079  0.00  0.00    -0.650 OA
BRANCH  47  49
HETATM   49  O   UNK     0     -19.570 -31.993  20.033  0.00  0.00    -0.776 OA
HETATM   50  H   UNK     0     -18.957 -32.792  20.238  0.00  0.00     0.167 HD
ENDBRANCH  47  49
ENDBRANCH  46  47
ENDBRANCH  45  46
ENDBRANCH  11  45
BRANCH  18  51
HETATM   51  C   UNK     0     -21.046 -26.471  23.795  0.00  0.00     0.051 C 
BRANCH  51  52
HETATM   52  C   UNK     0     -19.917 -25.536  23.389  0.00  0.00     0.114 C 
BRANCH  52  53
HETATM   53  C   UNK     0     -19.697 -24.472  24.388  0.00  0.00     0.139 C 
HETATM   54  O   UNK     0     -19.349 -24.767  25.542  0.00  0.00    -0.650 OA
BRANCH  53  55
HETATM   55  O   UNK     0     -19.883 -23.158  24.034  0.00  0.00    -0.776 OA
HETATM   56  H   UNK     0     -19.379 -22.380  24.390  0.00  0.00     0.167 HD
ENDBRANCH  53  55
ENDBRANCH  52  53
ENDBRANCH  51  52
ENDBRANCH  18  51
TORSDOF 16
ENDMDL
MODEL 13
REMARK VINA RESULT:      -8.5      2.249      7.737
REMARK  16 active torsions:
REMARK  status: ('A' for Active; 'I' for Inactive)
REMARK    1  A    between atoms: C_6  and  C_7 
REMARK    2  A    between atoms: C_7  and  C_8 
REMARK    3  A    between atoms: C_8  and  C_9 
REMARK    4  A    between atoms: C_9  and  O_11 
REMARK    5  A    between atoms: C_16  and  C_17 
REMARK    6  A    between atoms: C_17  and  C_18 
REMARK    7  A    between atoms: C_18  and  C_19 
REMARK    8  A    between atoms: C_19  and  O_21 
REMARK    9  A    between atoms: C_28  and  C_29 
REMARK   10  A    between atoms: C_29  and  C_30 
REMARK   11  A    between atoms: C_30  and  C_31 
REMARK   12  A    between atoms: C_31  and  O_33 
REMARK   13  A    between atoms: C_42  and  C_43 
REMARK   14  A    between atoms: C_43  and  C_44 
REMARK   15  A    between atoms: C_44  and  C_45 
REMARK   16  A    between atoms: C_45  and  O_47 
ROOT
HETATM    1  C   UNK     0     -22.499 -14.923  25.229  0.00  0.00     0.051 C 
HETATM    2  C   UNK     0     -22.652 -15.984  24.158  0.00  0.00    -0.031 A 
HETATM    3  C   UNK     0     -21.706 -16.856  23.643  0.00  0.00     0.021 A 
HETATM    4  N   UNK     0     -22.281 -17.610  22.676  0.00  0.00    -0.361 N 
HETATM    5  C   UNK     0     -23.575 -17.244  22.571  0.00  0.00     0.022 A 
HETATM    6  C   UNK     0     -23.840 -16.227  23.481  0.00  0.00    -0.027 A 
HETATM    7  C   UNK     0     -24.663 -17.827  21.724  0.00  0.00     0.115 C 
HETATM    8  C   UNK     0     -24.726 -19.342  21.643  0.00  0.00     0.021 A 
HETATM    9  N   UNK     0     -24.455 -20.242  22.600  0.00  0.00    -0.361 N 
HETATM   10  C   UNK     0     -24.554 -21.474  22.057  0.00  0.00     0.022 A 
HETATM   11  C   UNK     0     -24.907 -21.364  20.715  0.00  0.00    -0.027 A 
HETATM   12  C   UNK     0     -25.018 -20.023  20.448  0.00  0.00    -0.031 A 
HETATM   13  C   UNK     0     -25.391 -19.427  19.109  0.00  0.00     0.051 C 
HETATM   14  C   UNK     0     -24.268 -22.796  22.763  0.00  0.00     0.115 C 
HETATM   15  C   UNK     0     -22.839 -22.929  23.267  0.00  0.00     0.021 A 
HETATM   16  N   UNK     0     -22.196 -22.124  24.132  0.00  0.00    -0.361 N 
HETATM   17  C   UNK     0     -20.934 -22.540  24.262  0.00  0.00     0.022 A 
HETATM   18  C   UNK     0     -20.749 -23.676  23.449  0.00  0.00    -0.027 A 
HETATM   19  C   UNK     0     -21.950 -23.910  22.832  0.00  0.00    -0.031 A 
HETATM   20  C   UNK     0     -22.202 -25.072  21.889  0.00  0.00     0.051 C 
HETATM   21  C   UNK     0     -19.791 -21.943  25.052  0.00  0.00     0.115 C 
HETATM   22  C   UNK     0     -19.740 -20.439  25.178  0.00  0.00     0.022 A 
HETATM   23  N   UNK     0     -20.009 -19.518  24.243  0.00  0.00    -0.361 N 
HETATM   24  C   UNK     0     -19.981 -18.302  24.825  0.00  0.00     0.021 A 
HETATM   25  C   UNK     0     -19.677 -18.443  26.166  0.00  0.00    -0.031 A 
HETATM   26  C   UNK     0     -19.493 -17.370  27.219  0.00  0.00     0.051 C 
HETATM   27  C   UNK     0     -19.518 -19.801  26.415  0.00  0.00    -0.027 A 
HETATM   28  C   UNK     0     -20.312 -16.961  24.194  0.00  0.00     0.115 C 
HETATM   29  H   UNK     0     -21.759 -18.369  22.048  0.00  0.00     0.165 HD
HETATM   30  H   UNK     0     -24.242 -20.014  23.673  0.00  0.00     0.165 HD
HETATM   31  H   UNK     0     -22.653 -21.273  24.701  0.00  0.00     0.165 HD
HETATM   32  H   UNK     0     -20.178 -19.715  23.152  0.00  0.00     0.165 HD
ENDROOT
BRANCH   6  33
HETATM   33  C   UNK     0     -25.119 -15.476  23.752  0.00  0.00     0.051 C 
BRANCH  33  34
HETATM   34  C   UNK     0     -25.435 -15.472  25.229  0.00  0.00     0.114 C 
BRANCH  34  35
HETATM   35  C   UNK     0     -26.004 -14.134  25.560  0.00  0.00     0.139 C 
HETATM   36  O   UNK     0     -27.017 -13.701  24.939  0.00  0.00    -0.650 OA
BRANCH  35  37
HETATM   37  O   UNK     0     -25.466 -13.314  26.545  0.00  0.00    -0.776 OA
HETATM   38  H   UNK     0     -25.334 -13.632  27.492  0.00  0.00     0.167 HD
ENDBRANCH  35  37
ENDBRANCH  34  35
ENDBRANCH  33  34
ENDBRANCH   6  33
BRANCH  27  39
HETATM   39  C   UNK     0     -19.112 -20.340  27.742  0.00  0.00     0.051 C 
BRANCH  39  40
HETATM   40  C   UNK     0     -17.692 -20.596  27.983  0.00  0.00     0.114 C 
BRANCH  40  41
HETATM   41  C   UNK     0     -17.026 -20.164  29.190  0.00  0.00     0.139 C 
HETATM   42  O   UNK     0     -17.318 -20.581  30.319  0.00  0.00    -0.650 OA
BRANCH  41  43
HETATM   43  O   UNK     0     -15.974 -19.208  29.095  0.00  0.00    -0.776 OA
HETATM   44  H   UNK     0     -15.053 -19.577  29.298  0.00  0.00     0.167 HD
ENDBRANCH  41  43
ENDBRANCH  40  41
ENDBRANCH  39  40
ENDBRANCH  27  39
BRANCH  11  45
HETATM   45  C   UNK     0     -25.139 -22.460  19.709  0.00  0.00     0.051 C 
BRANCH  45  46
HETATM   46  C   UNK     0     -23.893 -23.050  19.158  0.00  0.00     0.114 C 
BRANCH  46  47
HETATM   47  C   UNK     0     -23.734 -22.530  17.770  0.00  0.00     0.139 C 
HETATM   48  O   UNK     0     -22.590 -22.334  17.338  0.00  0.00    -0.650 OA
BRANCH  47  49
HETATM   49  O   UNK     0     -24.831 -22.271  16.987  0.00  0.00    -0.776 OA
HETATM   50  H   UNK     0     -25.127 -22.906  16.236  0.00  0.00     0.167 HD
ENDBRANCH  47  49
ENDBRANCH  46  47
ENDBRANCH  45  46
ENDBRANCH  11  45
BRANCH  18  51
HETATM   51  C   UNK     0     -19.502 -24.505  23.286  0.00  0.00     0.051 C 
BRANCH  51  52
HETATM   52  C   UNK     0     -19.543 -25.557  24.385  0.00  0.00     0.114 C 
BRANCH  52  53
HETATM   53  C   UNK     0     -18.456 -25.370  25.366  0.00  0.00     0.139 C 
HETATM   54  O   UNK     0     -18.723 -25.237  26.571  0.00  0.00    -0.650 OA
BRANCH  53  55
HETATM   55  O   UNK     0     -17.152 -25.340  24.937  0.00  0.00    -0.776 OA
HETATM   56  H   UNK     0     -16.833 -25.006  24.058  0.00  0.00     0.167 HD
ENDBRANCH  53  55
ENDBRANCH  52  53
ENDBRANCH  51  52
ENDBRANCH  18  51
TORSDOF 16
ENDMDL
MODEL 14
REMARK VINA RESULT:      -8.5      1.713      8.069
REMARK  16 active torsions:
REMARK  status: ('A' for Active; 'I' for Inactive)
REMARK    1  A    between atoms: C_6  and  C_7 
REMARK    2  A    between atoms: C_7  and  C_8 
REMARK    3  A    between atoms: C_8  and  C_9 
REMARK    4  A    between atoms: C_9  and  O_11 
REMARK    5  A    between atoms: C_16  and  C_17 
REMARK    6  A    between atoms: C_17  and  C_18 
REMARK    7  A    between atoms: C_18  and  C_19 
REMARK    8  A    between atoms: C_19  and  O_21 
REMARK    9  A    between atoms: C_28  and  C_29 
REMARK   10  A    between atoms: C_29  and  C_30 
REMARK   11  A    between atoms: C_30  and  C_31 
REMARK   12  A    between atoms: C_31  and  O_33 
REMARK   13  A    between atoms: C_42  and  C_43 
REMARK   14  A    between atoms: C_43  and  C_44 
REMARK   15  A    between atoms: C_44  and  C_45 
REMARK   16  A    between atoms: C_45  and  O_47 
ROOT
HETATM    1  C   UNK     0     -24.065 -16.683  22.378  0.00  0.00     0.051 C 
HETATM    2  C   UNK     0     -23.537 -17.799  23.256  0.00  0.00    -0.031 A 
HETATM    3  C   UNK     0     -24.071 -19.054  23.500  0.00  0.00     0.021 A 
HETATM    4  N   UNK     0     -23.275 -19.710  24.378  0.00  0.00    -0.361 N 
HETATM    5  C   UNK     0     -22.240 -18.903  24.691  0.00  0.00     0.022 A 
HETATM    6  C   UNK     0     -22.374 -17.698  24.009  0.00  0.00    -0.027 A 
HETATM    7  C   UNK     0     -21.038 -19.182  25.539  0.00  0.00     0.115 C 
HETATM    8  C   UNK     0     -20.377 -20.537  25.360  0.00  0.00     0.021 A 
HETATM    9  N   UNK     0     -20.233 -21.254  24.235  0.00  0.00    -0.361 N 
HETATM   10  C   UNK     0     -19.668 -22.436  24.561  0.00  0.00     0.022 A 
HETATM   11  C   UNK     0     -19.433 -22.477  25.932  0.00  0.00    -0.027 A 
HETATM   12  C   UNK     0     -19.877 -21.284  26.441  0.00  0.00    -0.031 A 
HETATM   13  C   UNK     0     -19.819 -20.879  27.897  0.00  0.00     0.051 C 
HETATM   14  C   UNK     0     -19.377 -23.590  23.606  0.00  0.00     0.115 C 
HETATM   15  C   UNK     0     -20.615 -24.157  22.929  0.00  0.00     0.021 A 
HETATM   16  N   UNK     0     -21.497 -23.503  22.151  0.00  0.00    -0.361 N 
HETATM   17  C   UNK     0     -22.482 -24.336  21.809  0.00  0.00     0.022 A 
HETATM   18  C   UNK     0     -22.224 -25.596  22.384  0.00  0.00    -0.027 A 
HETATM   19  C   UNK     0     -21.051 -25.471  23.081  0.00  0.00    -0.031 A 
HETATM   20  C   UNK     0     -20.387 -26.614  23.828  0.00  0.00     0.051 C 
HETATM   21  C   UNK     0     -23.741 -24.078  21.013  0.00  0.00     0.115 C 
HETATM   22  C   UNK     0     -24.386 -22.718  21.149  0.00  0.00     0.022 A 
HETATM   23  N   UNK     0     -24.539 -21.979  22.255  0.00  0.00    -0.361 N 
HETATM   24  C   UNK     0     -25.032 -20.776  21.896  0.00  0.00     0.021 A 
HETATM   25  C   UNK     0     -25.210 -20.744  20.526  0.00  0.00    -0.031 A 
HETATM   26  C   UNK     0     -25.772 -19.633  19.663  0.00  0.00     0.051 C 
HETATM   27  C   UNK     0     -24.803 -21.976  20.025  0.00  0.00    -0.027 A 
HETATM   28  C   UNK     0     -25.287 -19.573  22.786  0.00  0.00     0.115 C 
HETATM   29  H   UNK     0     -23.470 -20.723  24.800  0.00  0.00     0.165 HD
HETATM   30  H   UNK     0     -20.483 -20.910  23.202  0.00  0.00     0.165 HD
HETATM   31  H   UNK     0     -21.400 -22.444  21.796  0.00  0.00     0.165 HD
HETATM   32  H   UNK     0     -24.342 -22.315  23.306  0.00  0.00     0.165 HD
ENDROOT
BRANCH   6  33
HETATM   33  C   UNK     0     -21.494 -16.474  24.020  0.00  0.00     0.051 C 
BRANCH  33  34
HETATM   34  C   UNK     0     -21.617 -15.739  25.334  0.00  0.00     0.114 C 
BRANCH  34  35
HETATM   35  C   UNK     0     -22.891 -14.966  25.295  0.00  0.00     0.139 C 
HETATM   36  O   UNK     0     -23.821 -15.229  26.112  0.00  0.00    -0.650 OA
BRANCH  35  37
HETATM   37  O   UNK     0     -23.119 -13.940  24.385  0.00  0.00    -0.776 OA
HETATM   38  H   UNK     0     -22.965 -12.973  24.620  0.00  0.00     0.167 HD
ENDBRANCH  35  37
ENDBRANCH  34  35
ENDBRANCH  33  34
ENDBRANCH   6  33
BRANCH  27  39
HETATM   39  C   UNK     0     -24.914 -22.343  18.588  0.00  0.00     0.051 C 
BRANCH  39  40
HETATM   40  C   UNK     0     -23.741 -22.910  17.923  0.00  0.00     0.114 C 
BRANCH  40  41
HETATM   41  C   UNK     0     -22.460 -22.240  17.917  0.00  0.00     0.139 C 
HETATM   42  O   UNK     0     -22.136 -21.393  17.073  0.00  0.00    -0.650 OA
BRANCH  41  43
HETATM   43  O   UNK     0     -21.509 -22.558  18.928  0.00  0.00    -0.776 OA
HETATM   44  H   UNK     0     -20.731 -23.122  18.608  0.00  0.00     0.167 HD
ENDBRANCH  41  43
ENDBRANCH  40  41
ENDBRANCH  39  40
ENDBRANCH  27  39
BRANCH  11  45
HETATM   45  C   UNK     0     -18.815 -23.580  26.749  0.00  0.00     0.051 C 
BRANCH  45  46
HETATM   46  C   UNK     0     -17.501 -23.229  27.346  0.00  0.00     0.114 C 
BRANCH  46  47
HETATM   47  C   UNK     0     -16.496 -24.181  26.793  0.00  0.00     0.139 C 
HETATM   48  O   UNK     0     -16.658 -24.611  25.642  0.00  0.00    -0.650 OA
BRANCH  47  49
HETATM   49  O   UNK     0     -15.416 -24.575  27.541  0.00  0.00    -0.776 OA
HETATM   50  H   UNK     0     -15.417 -24.530  28.567  0.00  0.00     0.167 HD
ENDBRANCH  47  49
ENDBRANCH  46  47
ENDBRANCH  45  46
ENDBRANCH  11  45
BRANCH  18  51
HETATM   51  C   UNK     0     -23.039 -26.857  22.257  0.00  0.00     0.051 C 
BRANCH  51  52
HETATM   52  C   UNK     0     -22.325 -27.725  21.232  0.00  0.00     0.114 C 
BRANCH  52  53
HETATM   53  C   UNK     0     -23.061 -27.783  19.954  0.00  0.00     0.139 C 
HETATM   54  O   UNK     0     -24.092 -27.110  19.799  0.00  0.00    -0.650 OA
BRANCH  53  55
HETATM   55  O   UNK     0     -22.599 -28.588  18.940  0.00  0.00    -0.776 OA
HETATM   56  H   UNK     0     -21.648 -28.799  18.749  0.00  0.00     0.167 HD
ENDBRANCH  53  55
ENDBRANCH  52  53
ENDBRANCH  51  52
ENDBRANCH  18  51
TORSDOF 16
ENDMDL
MODEL 15
REMARK VINA RESULT:      -8.3      4.297      9.376
REMARK  16 active torsions:
REMARK  status: ('A' for Active; 'I' for Inactive)
REMARK    1  A    between atoms: C_6  and  C_7 
REMARK    2  A    between atoms: C_7  and  C_8 
REMARK    3  A    between atoms: C_8  and  C_9 
REMARK    4  A    between atoms: C_9  and  O_11 
REMARK    5  A    between atoms: C_16  and  C_17 
REMARK    6  A    between atoms: C_17  and  C_18 
REMARK    7  A    between atoms: C_18  and  C_19 
REMARK    8  A    between atoms: C_19  and  O_21 
REMARK    9  A    between atoms: C_28  and  C_29 
REMARK   10  A    between atoms: C_29  and  C_30 
REMARK   11  A    between atoms: C_30  and  C_31 
REMARK   12  A    between atoms: C_31  and  O_33 
REMARK   13  A    between atoms: C_42  and  C_43 
REMARK   14  A    between atoms: C_43  and  C_44 
REMARK   15  A    between atoms: C_44  and  C_45 
REMARK   16  A    between atoms: C_45  and  O_47 
ROOT
HETATM    1  C   UNK     0     -24.291 -26.532  12.971  0.00  0.00     0.051 C 
HETATM    2  C   UNK     0     -23.400 -26.836  14.158  0.00  0.00    -0.031 A 
HETATM    3  C   UNK     0     -22.671 -25.968  14.956  0.00  0.00     0.021 A 
HETATM    4  N   UNK     0     -21.993 -26.686  15.883  0.00  0.00    -0.361 N 
HETATM    5  C   UNK     0     -22.281 -27.991  15.699  0.00  0.00     0.022 A 
HETATM    6  C   UNK     0     -23.156 -28.121  14.626  0.00  0.00    -0.027 A 
HETATM    7  C   UNK     0     -21.868 -29.180  16.508  0.00  0.00     0.115 C 
HETATM    8  C   UNK     0     -21.915 -29.027  18.018  0.00  0.00     0.021 A 
HETATM    9  N   UNK     0     -22.795 -28.338  18.762  0.00  0.00    -0.361 N 
HETATM   10  C   UNK     0     -22.397 -28.404  20.050  0.00  0.00     0.022 A 
HETATM   11  C   UNK     0     -21.234 -29.163  20.140  0.00  0.00    -0.027 A 
HETATM   12  C   UNK     0     -20.925 -29.559  18.864  0.00  0.00    -0.031 A 
HETATM   13  C   UNK     0     -19.738 -30.412  18.476  0.00  0.00     0.051 C 
HETATM   14  C   UNK     0     -23.064 -27.712  21.235  0.00  0.00     0.115 C 
HETATM   15  C   UNK     0     -23.094 -26.196  21.127  0.00  0.00     0.021 A 
HETATM   16  N   UNK     0     -23.652 -25.453  20.153  0.00  0.00    -0.361 N 
HETATM   17  C   UNK     0     -23.400 -24.163  20.387  0.00  0.00     0.022 A 
HETATM   18  C   UNK     0     -22.651 -24.060  21.576  0.00  0.00    -0.027 A 
HETATM   19  C   UNK     0     -22.467 -25.340  22.030  0.00  0.00    -0.031 A 
HETATM   20  C   UNK     0     -21.735 -25.682  23.315  0.00  0.00     0.051 C 
HETATM   21  C   UNK     0     -23.741 -22.942  19.563  0.00  0.00     0.115 C 
HETATM   22  C   UNK     0     -23.741 -23.091  18.060  0.00  0.00     0.022 A 
HETATM   23  N   UNK     0     -22.880 -23.774  17.294  0.00  0.00    -0.361 N 
HETATM   24  C   UNK     0     -23.338 -23.760  16.026  0.00  0.00     0.021 A 
HETATM   25  C   UNK     0     -24.518 -23.043  15.973  0.00  0.00    -0.031 A 
HETATM   26  C   UNK     0     -25.381 -22.717  14.772  0.00  0.00     0.051 C 
HETATM   27  C   UNK     0     -24.796 -22.604  17.262  0.00  0.00    -0.027 A 
HETATM   28  C   UNK     0     -22.755 -24.474  14.819  0.00  0.00     0.115 C 
HETATM   29  H   UNK     0     -21.285 -26.269  16.636  0.00  0.00     0.165 HD
HETATM   30  H   UNK     0     -23.726 -27.846  18.386  0.00  0.00     0.165 HD
HETATM   31  H   UNK     0     -24.277 -25.843  19.307  0.00  0.00     0.165 HD
HETATM   32  H   UNK     0     -21.916 -24.236  17.634  0.00  0.00     0.165 HD
ENDROOT
BRANCH   6  33
HETATM   33  C   UNK     0     -23.769 -29.357  14.018  0.00  0.00     0.051 C 
BRANCH  33  34
HETATM   34  C   UNK     0     -22.838 -29.970  12.998  0.00  0.00     0.114 C 
BRANCH  34  35
HETATM   35  C   UNK     0     -23.578 -30.042  11.705  0.00  0.00     0.139 C 
HETATM   36  O   UNK     0     -24.440 -30.949  11.515  0.00  0.00    -0.650 OA
BRANCH  35  37
HETATM   37  O   UNK     0     -23.367 -29.140  10.670  0.00  0.00    -0.776 OA
HETATM   38  H   UNK     0     -23.874 -28.273  10.605  0.00  0.00     0.167 HD
ENDBRANCH  35  37
ENDBRANCH  34  35
ENDBRANCH  33  34
ENDBRANCH   6  33
BRANCH  27  39
HETATM   39  C   UNK     0     -25.957 -21.734  17.589  0.00  0.00     0.051 C 
BRANCH  39  40
HETATM   40  C   UNK     0     -25.706 -20.324  17.887  0.00  0.00     0.114 C 
BRANCH  40  41
HETATM   41  C   UNK     0     -26.149 -19.704  19.116  0.00  0.00     0.139 C 
HETATM   42  O   UNK     0     -26.894 -18.715  19.153  0.00  0.00    -0.650 OA
BRANCH  41  43
HETATM   43  O   UNK     0     -25.717 -20.248  20.359  0.00  0.00    -0.776 OA
HETATM   44  H   UNK     0     -25.849 -19.633  21.153  0.00  0.00     0.167 HD
ENDBRANCH  41  43
ENDBRANCH  40  41
ENDBRANCH  39  40
ENDBRANCH  27  39
BRANCH  11  45
HETATM   45  C   UNK     0     -20.433 -29.517  21.364  0.00  0.00     0.051 C 
BRANCH  45  46
HETATM   46  C   UNK     0     -19.483 -28.459  21.793  0.00  0.00     0.114 C 
BRANCH  46  47
HETATM   47  C   UNK     0     -19.254 -28.637  23.255  0.00  0.00     0.139 C 
HETATM   48  O   UNK     0     -18.091 -28.601  23.682  0.00  0.00    -0.650 OA
BRANCH  47  49
HETATM   49  O   UNK     0     -20.307 -28.839  24.112  0.00  0.00    -0.776 OA
HETATM   50  H   UNK     0     -20.984 -28.098  24.327  0.00  0.00     0.167 HD
ENDBRANCH  47  49
ENDBRANCH  46  47
ENDBRANCH  45  46
ENDBRANCH  11  45
BRANCH  18  51
HETATM   51  C   UNK     0     -22.156 -22.808  22.253  0.00  0.00     0.051 C 
BRANCH  51  52
HETATM   52  C   UNK     0     -23.230 -22.412  23.254  0.00  0.00     0.114 C 
BRANCH  52  53
HETATM   53  C   UNK     0     -23.570 -20.979  23.158  0.00  0.00     0.139 C 
HETATM   54  O   UNK     0     -23.428 -20.378  22.081  0.00  0.00    -0.650 OA
BRANCH  53  55
HETATM   55  O   UNK     0     -24.041 -20.316  24.265  0.00  0.00    -0.776 OA
HETATM   56  H   UNK     0     -24.959 -20.381  24.638  0.00  0.00     0.167 HD
ENDBRANCH  53  55
ENDBRANCH  52  53
ENDBRANCH  51  52
ENDBRANCH  18  51
TORSDOF 16
ENDMDL
MODEL 16
REMARK VINA RESULT:      -8.1     28.314     31.303
REMARK  16 active torsions:
REMARK  status: ('A' for Active; 'I' for Inactive)
REMARK    1  A    between atoms: C_6  and  C_7 
REMARK    2  A    between atoms: C_7  and  C_8 
REMARK    3  A    between atoms: C_8  and  C_9 
REMARK    4  A    between atoms: C_9  and  O_11 
REMARK    5  A    between atoms: C_16  and  C_17 
REMARK    6  A    between atoms: C_17  and  C_18 
REMARK    7  A    between atoms: C_18  and  C_19 
REMARK    8  A    between atoms: C_19  and  O_21 
REMARK    9  A    between atoms: C_28  and  C_29 
REMARK   10  A    between atoms: C_29  and  C_30 
REMARK   11  A    between atoms: C_30  and  C_31 
REMARK   12  A    between atoms: C_31  and  O_33 
REMARK   13  A    between atoms: C_42  and  C_43 
REMARK   14  A    between atoms: C_43  and  C_44 
REMARK   15  A    between atoms: C_44  and  C_45 
REMARK   16  A    between atoms: C_45  and  O_47 
ROOT
HETATM    1  C   UNK     0      11.206 -17.538  16.374  0.00  0.00     0.051 C 
HETATM    2  C   UNK     0      10.698 -16.376  17.204  0.00  0.00    -0.031 A 
HETATM    3  C   UNK     0      10.465 -15.063  16.829  0.00  0.00     0.021 A 
HETATM    4  N   UNK     0      10.043 -14.364  17.910  0.00  0.00    -0.361 N 
HETATM    5  C   UNK     0       9.993 -15.206  18.963  0.00  0.00     0.022 A 
HETATM    6  C   UNK     0      10.400 -16.472  18.557  0.00  0.00    -0.027 A 
HETATM    7  C   UNK     0       9.506 -14.959  20.357  0.00  0.00     0.115 C 
HETATM    8  C   UNK     0       8.227 -14.153  20.499  0.00  0.00     0.021 A 
HETATM    9  N   UNK     0       7.146 -14.154  19.705  0.00  0.00    -0.361 N 
HETATM   10  C   UNK     0       6.289 -13.215  20.162  0.00  0.00     0.022 A 
HETATM   11  C   UNK     0       6.830 -12.600  21.287  0.00  0.00    -0.027 A 
HETATM   12  C   UNK     0       8.051 -13.186  21.505  0.00  0.00    -0.031 A 
HETATM   13  C   UNK     0       9.000 -12.837  22.629  0.00  0.00     0.051 C 
HETATM   14  C   UNK     0       4.957 -12.826  19.528  0.00  0.00     0.115 C 
HETATM   15  C   UNK     0       5.082 -12.289  18.112  0.00  0.00     0.021 A 
HETATM   16  N   UNK     0       5.611 -12.911  17.041  0.00  0.00    -0.361 N 
HETATM   17  C   UNK     0       5.599 -12.077  15.999  0.00  0.00     0.022 A 
HETATM   18  C   UNK     0       5.025 -10.856  16.407  0.00  0.00    -0.027 A 
HETATM   19  C   UNK     0       4.705 -11.003  17.732  0.00  0.00    -0.031 A 
HETATM   20  C   UNK     0       4.027  -9.926  18.560  0.00  0.00     0.051 C 
HETATM   21  C   UNK     0       6.138 -12.263  14.599  0.00  0.00     0.115 C 
HETATM   22  C   UNK     0       7.386 -13.100  14.438  0.00  0.00     0.022 A 
HETATM   23  N   UNK     0       8.476 -13.123  15.215  0.00  0.00    -0.361 N 
HETATM   24  C   UNK     0       9.280 -14.117  14.788  0.00  0.00     0.021 A 
HETATM   25  C   UNK     0       8.698 -14.743  13.703  0.00  0.00    -0.031 A 
HETATM   26  C   UNK     0       9.233 -15.882  12.859  0.00  0.00     0.051 C 
HETATM   27  C   UNK     0       7.485 -14.110  13.459  0.00  0.00    -0.027 A 
HETATM   28  C   UNK     0      10.584 -14.590  15.408  0.00  0.00     0.115 C 
HETATM   29  H   UNK     0       9.821 -13.272  17.930  0.00  0.00     0.165 HD
HETATM   30  H   UNK     0       6.961 -14.850  18.850  0.00  0.00     0.165 HD
HETATM   31  H   UNK     0       5.958 -13.977  17.007  0.00  0.00     0.165 HD
HETATM   32  H   UNK     0       8.709 -12.408  16.047  0.00  0.00     0.165 HD
ENDROOT
BRANCH   6  33
HETATM   33  C   UNK     0      10.526 -17.750  19.348  0.00  0.00     0.051 C 
BRANCH  33  34
HETATM   34  C   UNK     0       9.633 -17.716  20.565  0.00  0.00     0.114 C 
BRANCH  34  35
HETATM   35  C   UNK     0      10.412 -18.279  21.706  0.00  0.00     0.139 C 
HETATM   36  O   UNK     0      10.994 -19.396  21.590  0.00  0.00    -0.650 OA
BRANCH  35  37
HETATM   37  O   UNK     0      10.539 -17.621  22.923  0.00  0.00    -0.776 OA
HETATM   38  H   UNK     0      11.430 -17.508  23.379  0.00  0.00     0.167 HD
ENDBRANCH  35  37
ENDBRANCH  34  35
ENDBRANCH  33  34
ENDBRANCH   6  33
BRANCH  27  39
HETATM   39  C   UNK     0       6.600 -14.464  12.316  0.00  0.00     0.051 C 
BRANCH  39  40
HETATM   40  C   UNK     0       5.527 -15.431  12.542  0.00  0.00     0.114 C 
BRANCH  40  41
HETATM   41  C   UNK     0       5.415 -16.651  11.776  0.00  0.00     0.139 C 
HETATM   42  O   UNK     0       5.296 -17.772  12.289  0.00  0.00    -0.650 OA
BRANCH  41  43
HETATM   43  O   UNK     0       5.440 -16.579  10.354  0.00  0.00    -0.776 OA
HETATM   44  H   UNK     0       6.248 -16.100   9.973  0.00  0.00     0.167 HD
ENDBRANCH  41  43
ENDBRANCH  40  41
ENDBRANCH  39  40
ENDBRANCH  27  39
BRANCH  11  45
HETATM   45  C   UNK     0       6.241 -11.507  22.138  0.00  0.00     0.051 C 
BRANCH  45  46
HETATM   46  C   UNK     0       7.023 -10.245  22.131  0.00  0.00     0.114 C 
BRANCH  46  47
HETATM   47  C   UNK     0       7.132  -9.801  20.711  0.00  0.00     0.139 C 
HETATM   48  O   UNK     0       7.974 -10.344  19.983  0.00  0.00    -0.650 OA
BRANCH  47  49
HETATM   49  O   UNK     0       6.318  -8.811  20.221  0.00  0.00    -0.776 OA
HETATM   50  H   UNK     0       6.141  -7.943  20.741  0.00  0.00     0.167 HD
ENDBRANCH  47  49
ENDBRANCH  46  47
ENDBRANCH  45  46
ENDBRANCH  11  45
BRANCH  18  51
HETATM   51  C   UNK     0       4.776  -9.626  15.575  0.00  0.00     0.051 C 
BRANCH  51  52
HETATM   52  C   UNK     0       3.473  -9.871  14.830  0.00  0.00     0.114 C 
BRANCH  52  53
HETATM   53  C   UNK     0       2.375  -9.035  15.353  0.00  0.00     0.139 C 
HETATM   54  O   UNK     0       2.582  -7.845  15.639  0.00  0.00    -0.650 OA
BRANCH  53  55
HETATM   55  O   UNK     0       1.127  -9.582  15.525  0.00  0.00    -0.776 OA
HETATM   56  H   UNK     0       0.857 -10.208  16.247  0.00  0.00     0.167 HD
ENDBRANCH  53  55
ENDBRANCH  52  53
ENDBRANCH  51  52
ENDBRANCH  18  51
TORSDOF 16
ENDMDL
MODEL 17
REMARK VINA RESULT:      -8.1      5.407      8.581
REMARK  16 active torsions:
REMARK  status: ('A' for Active; 'I' for Inactive)
REMARK    1  A    between atoms: C_6  and  C_7 
REMARK    2  A    between atoms: C_7  and  C_8 
REMARK    3  A    between atoms: C_8  and  C_9 
REMARK    4  A    between atoms: C_9  and  O_11 
REMARK    5  A    between atoms: C_16  and  C_17 
REMARK    6  A    between atoms: C_17  and  C_18 
REMARK    7  A    between atoms: C_18  and  C_19 
REMARK    8  A    between atoms: C_19  and  O_21 
REMARK    9  A    between atoms: C_28  and  C_29 
REMARK   10  A    between atoms: C_29  and  C_30 
REMARK   11  A    between atoms: C_30  and  C_31 
REMARK   12  A    between atoms: C_31  and  O_33 
REMARK   13  A    between atoms: C_42  and  C_43 
REMARK   14  A    between atoms: C_43  and  C_44 
REMARK   15  A    between atoms: C_44  and  C_45 
REMARK   16  A    between atoms: C_45  and  O_47 
ROOT
HETATM    1  C   UNK     0     -22.399 -25.612  15.170  0.00  0.00     0.051 C 
HETATM    2  C   UNK     0     -22.788 -26.181  16.520  0.00  0.00    -0.031 A 
HETATM    3  C   UNK     0     -22.858 -27.503  16.929  0.00  0.00     0.021 A 
HETATM    4  N   UNK     0     -23.283 -27.545  18.215  0.00  0.00    -0.361 N 
HETATM    5  C   UNK     0     -23.476 -26.278  18.635  0.00  0.00     0.022 A 
HETATM    6  C   UNK     0     -23.178 -25.400  17.599  0.00  0.00    -0.027 A 
HETATM    7  C   UNK     0     -23.850 -25.773  19.994  0.00  0.00     0.115 C 
HETATM    8  C   UNK     0     -23.162 -26.429  21.178  0.00  0.00     0.021 A 
HETATM    9  N   UNK     0     -21.903 -26.883  21.267  0.00  0.00    -0.361 N 
HETATM   10  C   UNK     0     -21.753 -27.471  22.473  0.00  0.00     0.022 A 
HETATM   11  C   UNK     0     -22.946 -27.385  23.184  0.00  0.00    -0.027 A 
HETATM   12  C   UNK     0     -23.838 -26.729  22.374  0.00  0.00    -0.031 A 
HETATM   13  C   UNK     0     -25.270 -26.402  22.736  0.00  0.00     0.051 C 
HETATM   14  C   UNK     0     -20.502 -28.182  22.980  0.00  0.00     0.115 C 
HETATM   15  C   UNK     0     -20.089 -29.378  22.137  0.00  0.00     0.021 A 
HETATM   16  N   UNK     0     -19.781 -29.393  20.827  0.00  0.00    -0.361 N 
HETATM   17  C   UNK     0     -19.540 -30.650  20.447  0.00  0.00     0.022 A 
HETATM   18  C   UNK     0     -19.689 -31.494  21.566  0.00  0.00    -0.027 A 
HETATM   19  C   UNK     0     -20.032 -30.685  22.618  0.00  0.00    -0.031 A 
HETATM   20  C   UNK     0     -20.253 -31.189  24.033  0.00  0.00     0.051 C 
HETATM   21  C   UNK     0     -19.226 -31.208  19.078  0.00  0.00     0.115 C 
HETATM   22  C   UNK     0     -19.869 -30.537  17.887  0.00  0.00     0.022 A 
HETATM   23  N   UNK     0     -21.119 -30.071  17.772  0.00  0.00    -0.361 N 
HETATM   24  C   UNK     0     -21.223 -29.421  16.595  0.00  0.00     0.021 A 
HETATM   25  C   UNK     0     -20.012 -29.479  15.931  0.00  0.00    -0.031 A 
HETATM   26  C   UNK     0     -19.646 -28.935  14.566  0.00  0.00     0.051 C 
HETATM   27  C   UNK     0     -19.130 -30.189  16.738  0.00  0.00    -0.027 A 
HETATM   28  C   UNK     0     -22.416 -28.648  16.062  0.00  0.00     0.115 C 
HETATM   29  H   UNK     0     -23.481 -28.471  18.803  0.00  0.00     0.165 HD
HETATM   30  H   UNK     0     -21.102 -26.747  20.500  0.00  0.00     0.165 HD
HETATM   31  H   UNK     0     -19.685 -28.493  20.166  0.00  0.00     0.165 HD
HETATM   32  H   UNK     0     -21.954 -30.234  18.502  0.00  0.00     0.165 HD
ENDROOT
BRANCH   6  33
HETATM   33  C   UNK     0     -23.238 -23.894  17.557  0.00  0.00     0.051 C 
BRANCH  33  34
HETATM   34  C   UNK     0     -21.893 -23.295  17.892  0.00  0.00     0.114 C 
BRANCH  34  35
HETATM   35  C   UNK     0     -22.141 -22.032  18.644  0.00  0.00     0.139 C 
HETATM   36  O   UNK     0     -21.875 -21.963  19.879  0.00  0.00    -0.650 OA
BRANCH  35  37
HETATM   37  O   UNK     0     -22.663 -20.892  18.044  0.00  0.00    -0.776 OA
HETATM   38  H   UNK     0     -23.617 -20.602  18.186  0.00  0.00     0.167 HD
ENDBRANCH  35  37
ENDBRANCH  34  35
ENDBRANCH  33  34
ENDBRANCH   6  33
BRANCH  27  39
HETATM   39  C   UNK     0     -17.740 -30.520  16.323  0.00  0.00     0.051 C 
BRANCH  39  40
HETATM   40  C   UNK     0     -17.495 -31.811  15.681  0.00  0.00     0.114 C 
BRANCH  40  41
HETATM   41  C   UNK     0     -16.985 -32.950  16.411  0.00  0.00     0.139 C 
HETATM   42  O   UNK     0     -16.499 -32.872  17.547  0.00  0.00    -0.650 OA
BRANCH  41  43
HETATM   43  O   UNK     0     -17.038 -34.238  15.806  0.00  0.00    -0.776 OA
HETATM   44  H   UNK     0     -16.277 -34.854  16.065  0.00  0.00     0.167 HD
ENDBRANCH  41  43
ENDBRANCH  40  41
ENDBRANCH  39  40
ENDBRANCH  27  39
BRANCH  11  45
HETATM   45  C   UNK     0     -23.256 -27.888  24.568  0.00  0.00     0.051 C 
BRANCH  45  46
HETATM   46  C   UNK     0     -23.957 -29.197  24.595  0.00  0.00     0.114 C 
BRANCH  46  47
HETATM   47  C   UNK     0     -23.525 -29.904  25.834  0.00  0.00     0.139 C 
HETATM   48  O   UNK     0     -22.683 -30.808  25.738  0.00  0.00    -0.650 OA
BRANCH  47  49
HETATM   49  O   UNK     0     -24.049 -29.564  27.056  0.00  0.00    -0.776 OA
HETATM   50  H   UNK     0     -23.516 -29.022  27.746  0.00  0.00     0.167 HD
ENDBRANCH  47  49
ENDBRANCH  46  47
ENDBRANCH  45  46
ENDBRANCH  11  45
BRANCH  18  51
HETATM   51  C   UNK     0     -19.495 -32.986  21.633  0.00  0.00     0.051 C 
BRANCH  51  52
HETATM   52  C   UNK     0     -18.006 -33.213  21.851  0.00  0.00     0.114 C 
BRANCH  52  53
HETATM   53  C   UNK     0     -17.704 -33.562  23.253  0.00  0.00     0.139 C 
HETATM   54  O   UNK     0     -18.044 -34.666  23.706  0.00  0.00    -0.650 OA
BRANCH  53  55
HETATM   55  O   UNK     0     -17.047 -32.657  24.051  0.00  0.00    -0.776 OA
HETATM   56  H   UNK     0     -16.063 -32.568  24.145  0.00  0.00     0.167 HD
ENDBRANCH  53  55
ENDBRANCH  52  53
ENDBRANCH  51  52
ENDBRANCH  18  51
TORSDOF 16
ENDMDL
MODEL 18
REMARK VINA RESULT:      -8.1      6.428      9.601
REMARK  16 active torsions:
REMARK  status: ('A' for Active; 'I' for Inactive)
REMARK    1  A    between atoms: C_6  and  C_7 
REMARK    2  A    between atoms: C_7  and  C_8 
REMARK    3  A    between atoms: C_8  and  C_9 
REMARK    4  A    between atoms: C_9  and  O_11 
REMARK    5  A    between atoms: C_16  and  C_17 
REMARK    6  A    between atoms: C_17  and  C_18 
REMARK    7  A    between atoms: C_18  and  C_19 
REMARK    8  A    between atoms: C_19  and  O_21 
REMARK    9  A    between atoms: C_28  and  C_29 
REMARK   10  A    between atoms: C_29  and  C_30 
REMARK   11  A    between atoms: C_30  and  C_31 
REMARK   12  A    between atoms: C_31  and  O_33 
REMARK   13  A    between atoms: C_42  and  C_43 
REMARK   14  A    between atoms: C_43  and  C_44 
REMARK   15  A    between atoms: C_44  and  C_45 
REMARK   16  A    between atoms: C_45  and  O_47 
ROOT
HETATM    1  C   UNK     0     -22.886 -28.184   9.382  0.00  0.00     0.051 C 
HETATM    2  C   UNK     0     -23.613 -27.428  10.475  0.00  0.00    -0.031 A 
HETATM    3  C   UNK     0     -24.194 -27.907  11.639  0.00  0.00     0.021 A 
HETATM    4  N   UNK     0     -24.761 -26.874  12.307  0.00  0.00    -0.361 N 
HETATM    5  C   UNK     0     -24.546 -25.746  11.598  0.00  0.00     0.022 A 
HETATM    6  C   UNK     0     -23.833 -26.057  10.445  0.00  0.00    -0.027 A 
HETATM    7  C   UNK     0     -24.882 -24.328  11.941  0.00  0.00     0.115 C 
HETATM    8  C   UNK     0     -24.620 -23.892  13.371  0.00  0.00     0.021 A 
HETATM    9  N   UNK     0     -23.623 -24.262  14.189  0.00  0.00    -0.361 N 
HETATM   10  C   UNK     0     -23.839 -23.698  15.396  0.00  0.00     0.022 A 
HETATM   11  C   UNK     0     -25.003 -22.937  15.352  0.00  0.00    -0.027 A 
HETATM   12  C   UNK     0     -25.500 -23.054  14.080  0.00  0.00    -0.031 A 
HETATM   13  C   UNK     0     -26.758 -22.388  13.568  0.00  0.00     0.051 C 
HETATM   14  C   UNK     0     -22.990 -23.897  16.649  0.00  0.00     0.115 C 
HETATM   15  C   UNK     0     -22.925 -25.339  17.126  0.00  0.00     0.021 A 
HETATM   16  N   UNK     0     -22.483 -26.411  16.442  0.00  0.00    -0.361 N 
HETATM   17  C   UNK     0     -22.655 -27.507  17.185  0.00  0.00     0.022 A 
HETATM   18  C   UNK     0     -23.228 -27.129  18.416  0.00  0.00    -0.027 A 
HETATM   19  C   UNK     0     -23.391 -25.769  18.367  0.00  0.00    -0.031 A 
HETATM   20  C   UNK     0     -23.948 -24.944  19.512  0.00  0.00     0.051 C 
HETATM   21  C   UNK     0     -22.392 -28.958  16.852  0.00  0.00     0.115 C 
HETATM   22  C   UNK     0     -22.606 -29.396  15.423  0.00  0.00     0.022 A 
HETATM   23  N   UNK     0     -23.588 -29.040  14.584  0.00  0.00    -0.361 N 
HETATM   24  C   UNK     0     -23.310 -29.549  13.367  0.00  0.00     0.021 A 
HETATM   25  C   UNK     0     -22.126 -30.259  13.426  0.00  0.00    -0.031 A 
HETATM   26  C   UNK     0     -21.427 -31.039  12.332  0.00  0.00     0.051 C 
HETATM   27  C   UNK     0     -21.656 -30.175  14.731  0.00  0.00    -0.027 A 
HETATM   28  C   UNK     0     -24.080 -29.340  12.074  0.00  0.00     0.115 C 
HETATM   29  H   UNK     0     -25.343 -26.954  13.254  0.00  0.00     0.165 HD
HETATM   30  H   UNK     0     -22.737 -24.880  13.903  0.00  0.00     0.165 HD
HETATM   31  H   UNK     0     -21.995 -26.389  15.433  0.00  0.00     0.165 HD
HETATM   32  H   UNK     0     -24.510 -28.462  14.854  0.00  0.00     0.165 HD
ENDROOT
BRANCH   6  33
HETATM   33  C   UNK     0     -23.353 -25.162   9.330  0.00  0.00     0.051 C 
BRANCH  33  34
HETATM   34  C   UNK     0     -24.440 -24.961   8.301  0.00  0.00     0.114 C 
BRANCH  34  35
HETATM   35  C   UNK     0     -24.763 -23.505   8.272  0.00  0.00     0.139 C 
HETATM   36  O   UNK     0     -25.952 -23.113   8.459  0.00  0.00    -0.650 OA
BRANCH  35  37
HETATM   37  O   UNK     0     -23.802 -22.529   8.046  0.00  0.00    -0.776 OA
HETATM   38  H   UNK     0     -23.548 -21.855   8.750  0.00  0.00     0.167 HD
ENDBRANCH  35  37
ENDBRANCH  34  35
ENDBRANCH  33  34
ENDBRANCH   6  33
BRANCH  27  39
HETATM   39  C   UNK     0     -20.432 -30.879  15.199  0.00  0.00     0.051 C 
BRANCH  39  40
HETATM   40  C   UNK     0     -20.530 -32.302  15.523  0.00  0.00     0.114 C 
BRANCH  40  41
HETATM   41  C   UNK     0     -20.851 -32.769  16.853  0.00  0.00     0.139 C 
HETATM   42  O   UNK     0     -20.418 -32.240  17.886  0.00  0.00    -0.650 OA
BRANCH  41  43
HETATM   43  O   UNK     0     -21.708 -33.896  17.002  0.00  0.00    -0.776 OA
HETATM   44  H   UNK     0     -22.449 -33.772  17.682  0.00  0.00     0.167 HD
ENDBRANCH  41  43
ENDBRANCH  40  41
ENDBRANCH  39  40
ENDBRANCH  27  39
BRANCH  11  45
HETATM   45  C   UNK     0     -25.638 -22.123  16.448  0.00  0.00     0.051 C 
BRANCH  45  46
HETATM   46  C   UNK     0     -24.916 -20.864  16.763  0.00  0.00     0.114 C 
BRANCH  46  47
HETATM   47  C   UNK     0     -25.024 -20.650  18.235  0.00  0.00     0.139 C 
HETATM   48  O   UNK     0     -25.262 -21.626  18.960  0.00  0.00    -0.650 OA
BRANCH  47  49
HETATM   49  O   UNK     0     -24.865 -19.399  18.777  0.00  0.00    -0.776 OA
HETATM   50  H   UNK     0     -25.488 -18.618  18.538  0.00  0.00     0.167 HD
ENDBRANCH  47  49
ENDBRANCH  46  47
ENDBRANCH  45  46
ENDBRANCH  11  45
BRANCH  18  51
HETATM   51  C   UNK     0     -23.581 -28.014  19.583  0.00  0.00     0.051 C 
BRANCH  51  52
HETATM   52  C   UNK     0     -22.343 -28.069  20.466  0.00  0.00     0.114 C 
BRANCH  52  53
HETATM   53  C   UNK     0     -22.605 -27.527  21.813  0.00  0.00     0.139 C 
HETATM   54  O   UNK     0     -22.157 -26.415  22.134  0.00  0.00    -0.650 OA
BRANCH  53  55
HETATM   55  O   UNK     0     -23.342 -28.262  22.710  0.00  0.00    -0.776 OA
HETATM   56  H   UNK     0     -22.979 -28.835  23.434  0.00  0.00     0.167 HD
ENDBRANCH  53  55
ENDBRANCH  52  53
ENDBRANCH  51  52
ENDBRANCH  18  51
TORSDOF 16
ENDMDL
MODEL 19
REMARK VINA RESULT:      -8.0      5.278     10.624
REMARK  16 active torsions:
REMARK  status: ('A' for Active; 'I' for Inactive)
REMARK    1  A    between atoms: C_6  and  C_7 
REMARK    2  A    between atoms: C_7  and  C_8 
REMARK    3  A    between atoms: C_8  and  C_9 
REMARK    4  A    between atoms: C_9  and  O_11 
REMARK    5  A    between atoms: C_16  and  C_17 
REMARK    6  A    between atoms: C_17  and  C_18 
REMARK    7  A    between atoms: C_18  and  C_19 
REMARK    8  A    between atoms: C_19  and  O_21 
REMARK    9  A    between atoms: C_28  and  C_29 
REMARK   10  A    between atoms: C_29  and  C_30 
REMARK   11  A    between atoms: C_30  and  C_31 
REMARK   12  A    between atoms: C_31  and  O_33 
REMARK   13  A    between atoms: C_42  and  C_43 
REMARK   14  A    between atoms: C_43  and  C_44 
REMARK   15  A    between atoms: C_44  and  C_45 
REMARK   16  A    between atoms: C_45  and  O_47 
ROOT
HETATM    1  C   UNK     0     -21.654 -29.883  12.505  0.00  0.00     0.051 C 
HETATM    2  C   UNK     0     -21.189 -29.530  13.903  0.00  0.00    -0.031 A 
HETATM    3  C   UNK     0     -20.857 -28.294  14.433  0.00  0.00     0.021 A 
HETATM    4  N   UNK     0     -20.465 -28.456  15.719  0.00  0.00    -0.361 N 
HETATM    5  C   UNK     0     -20.549 -29.768  16.023  0.00  0.00     0.022 A 
HETATM    6  C   UNK     0     -20.996 -30.469  14.908  0.00  0.00    -0.027 A 
HETATM    7  C   UNK     0     -20.322 -30.459  17.331  0.00  0.00     0.115 C 
HETATM    8  C   UNK     0     -20.888 -29.783  18.567  0.00  0.00     0.021 A 
HETATM    9  N   UNK     0     -22.028 -29.085  18.690  0.00  0.00    -0.361 N 
HETATM   10  C   UNK     0     -22.082 -28.588  19.944  0.00  0.00     0.022 A 
HETATM   11  C   UNK     0     -20.951 -28.985  20.651  0.00  0.00    -0.027 A 
HETATM   12  C   UNK     0     -20.195 -29.738  19.789  0.00  0.00    -0.031 A 
HETATM   13  C   UNK     0     -18.871 -30.387  20.127  0.00  0.00     0.051 C 
HETATM   14  C   UNK     0     -23.172 -27.680  20.507  0.00  0.00     0.115 C 
HETATM   15  C   UNK     0     -23.306 -26.354  19.776  0.00  0.00     0.021 A 
HETATM   16  N   UNK     0     -23.572 -26.159  18.471  0.00  0.00    -0.361 N 
HETATM   17  C   UNK     0     -23.537 -24.850  18.208  0.00  0.00     0.022 A 
HETATM   18  C   UNK     0     -23.245 -24.160  19.400  0.00  0.00    -0.027 A 
HETATM   19  C   UNK     0     -23.104 -25.112  20.375  0.00  0.00    -0.031 A 
HETATM   20  C   UNK     0     -22.818 -24.794  21.832  0.00  0.00     0.051 C 
HETATM   21  C   UNK     0     -23.695 -24.119  16.894  0.00  0.00     0.115 C 
HETATM   22  C   UNK     0     -23.175 -24.801  15.649  0.00  0.00     0.022 A 
HETATM   23  N   UNK     0     -22.046 -25.505  15.499  0.00  0.00    -0.361 N 
HETATM   24  C   UNK     0     -22.051 -26.055  14.268  0.00  0.00     0.021 A 
HETATM   25  C   UNK     0     -23.206 -25.686  13.606  0.00  0.00    -0.031 A 
HETATM   26  C   UNK     0     -23.642 -26.019  12.194  0.00  0.00     0.051 C 
HETATM   27  C   UNK     0     -23.942 -24.883  14.469  0.00  0.00    -0.027 A 
HETATM   28  C   UNK     0     -21.030 -27.010  13.673  0.00  0.00     0.115 C 
HETATM   29  H   UNK     0     -20.094 -27.648  16.392  0.00  0.00     0.165 HD
HETATM   30  H   UNK     0     -22.820 -28.982  17.908  0.00  0.00     0.165 HD
HETATM   31  H   UNK     0     -23.836 -26.957  17.729  0.00  0.00     0.165 HD
HETATM   32  H   UNK     0     -21.214 -25.586  16.246  0.00  0.00     0.165 HD
ENDROOT
BRANCH   6  33
HETATM   33  C   UNK     0     -21.249 -31.945  14.727  0.00  0.00     0.051 C 
BRANCH  33  34
HETATM   34  C   UNK     0     -20.005 -32.643  14.230  0.00  0.00     0.114 C 
BRANCH  34  35
HETATM   35  C   UNK     0     -20.312 -33.193  12.878  0.00  0.00     0.139 C 
HETATM   36  O   UNK     0     -19.466 -33.093  11.943  0.00  0.00    -0.650 OA
BRANCH  35  37
HETATM   37  O   UNK     0     -21.511 -33.830  12.583  0.00  0.00    -0.776 OA
HETATM   38  H   UNK     0     -21.666 -34.299  11.705  0.00  0.00     0.167 HD
ENDBRANCH  35  37
ENDBRANCH  34  35
ENDBRANCH  33  34
ENDBRANCH   6  33
BRANCH  27  39
HETATM   39  C   UNK     0     -25.223 -24.234  14.079  0.00  0.00     0.051 C 
BRANCH  39  40
HETATM   40  C   UNK     0     -25.173 -22.890  13.505  0.00  0.00     0.114 C 
BRANCH  40  41
HETATM   41  C   UNK     0     -24.257 -21.880  13.985  0.00  0.00     0.139 C 
HETATM   42  O   UNK     0     -24.580 -20.986  14.779  0.00  0.00    -0.650 OA
BRANCH  41  43
HETATM   43  O   UNK     0     -22.907 -21.899  13.531  0.00  0.00    -0.776 OA
HETATM   44  H   UNK     0     -22.217 -21.956  14.271  0.00  0.00     0.167 HD
ENDBRANCH  41  43
ENDBRANCH  40  41
ENDBRANCH  39  40
ENDBRANCH  27  39
BRANCH  11  45
HETATM   45  C   UNK     0     -20.578 -28.683  22.078  0.00  0.00     0.051 C 
BRANCH  45  46
HETATM   46  C   UNK     0     -21.425 -29.373  23.084  0.00  0.00     0.114 C 
BRANCH  46  47
HETATM   47  C   UNK     0     -20.566 -30.385  23.764  0.00  0.00     0.139 C 
HETATM   48  O   UNK     0     -20.125 -30.126  24.892  0.00  0.00    -0.650 OA
BRANCH  47  49
HETATM   49  O   UNK     0     -20.268 -31.578  23.154  0.00  0.00    -0.776 OA
HETATM   50  H   UNK     0     -19.452 -31.686  22.539  0.00  0.00     0.167 HD
ENDBRANCH  47  49
ENDBRANCH  46  47
ENDBRANCH  45  46
ENDBRANCH  11  45
BRANCH  18  51
HETATM   51  C   UNK     0     -23.127 -22.671  19.604  0.00  0.00     0.051 C 
BRANCH  51  52
HETATM   52  C   UNK     0     -22.044 -22.195  18.648  0.00  0.00     0.114 C 
BRANCH  52  53
HETATM   53  C   UNK     0     -22.538 -21.147  17.734  0.00  0.00     0.139 C 
HETATM   54  O   UNK     0     -23.429 -20.367  18.108  0.00  0.00    -0.650 OA
BRANCH  53  55
HETATM   55  O   UNK     0     -22.010 -21.042  16.470  0.00  0.00    -0.776 OA
HETATM   56  H   UNK     0     -21.236 -20.480  16.206  0.00  0.00     0.167 HD
ENDBRANCH  53  55
ENDBRANCH  52  53
ENDBRANCH  51  52
ENDBRANCH  18  51
TORSDOF 16
ENDMDL
MODEL 20
REMARK VINA RESULT:      -8.0      4.964     11.965
REMARK  16 active torsions:
REMARK  status: ('A' for Active; 'I' for Inactive)
REMARK    1  A    between atoms: C_6  and  C_7 
REMARK    2  A    between atoms: C_7  and  C_8 
REMARK    3  A    between atoms: C_8  and  C_9 
REMARK    4  A    between atoms: C_9  and  O_11 
REMARK    5  A    between atoms: C_16  and  C_17 
REMARK    6  A    between atoms: C_17  and  C_18 
REMARK    7  A    between atoms: C_18  and  C_19 
REMARK    8  A    between atoms: C_19  and  O_21 
REMARK    9  A    between atoms: C_28  and  C_29 
REMARK   10  A    between atoms: C_29  and  C_30 
REMARK   11  A    between atoms: C_30  and  C_31 
REMARK   12  A    between atoms: C_31  and  O_33 
REMARK   13  A    between atoms: C_42  and  C_43 
REMARK   14  A    between atoms: C_43  and  C_44 
REMARK   15  A    between atoms: C_44  and  C_45 
REMARK   16  A    between atoms: C_45  and  O_47 
ROOT
HETATM    1  C   UNK     0     -20.864 -27.439  23.000  0.00  0.00     0.051 C 
HETATM    2  C   UNK     0     -21.243 -28.090  21.686  0.00  0.00    -0.031 A 
HETATM    3  C   UNK     0     -22.332 -27.845  20.865  0.00  0.00     0.021 A 
HETATM    4  N   UNK     0     -22.284 -28.687  19.805  0.00  0.00    -0.361 N 
HETATM    5  C   UNK     0     -21.184 -29.457  19.929  0.00  0.00     0.022 A 
HETATM    6  C   UNK     0     -20.511 -29.112  21.096  0.00  0.00    -0.027 A 
HETATM    7  C   UNK     0     -20.624 -30.476  18.986  0.00  0.00     0.115 C 
HETATM    8  C   UNK     0     -20.627 -30.114  17.511  0.00  0.00     0.021 A 
HETATM    9  N   UNK     0     -20.434 -28.912  16.944  0.00  0.00    -0.361 N 
HETATM   10  C   UNK     0     -20.617 -29.042  15.613  0.00  0.00     0.022 A 
HETATM   11  C   UNK     0     -20.928 -30.365  15.313  0.00  0.00    -0.027 A 
HETATM   12  C   UNK     0     -20.936 -31.046  16.504  0.00  0.00    -0.031 A 
HETATM   13  C   UNK     0     -21.221 -32.522  16.666  0.00  0.00     0.051 C 
HETATM   14  C   UNK     0     -20.559 -27.919  14.581  0.00  0.00     0.115 C 
HETATM   15  C   UNK     0     -21.589 -26.824  14.805  0.00  0.00     0.021 A 
HETATM   16  N   UNK     0     -21.744 -26.052  15.897  0.00  0.00    -0.361 N 
HETATM   17  C   UNK     0     -22.806 -25.261  15.728  0.00  0.00     0.022 A 
HETATM   18  C   UNK     0     -23.364 -25.523  14.461  0.00  0.00    -0.027 A 
HETATM   19  C   UNK     0     -22.592 -26.503  13.892  0.00  0.00    -0.031 A 
HETATM   20  C   UNK     0     -22.826 -27.059  12.500  0.00  0.00     0.051 C 
HETATM   21  C   UNK     0     -23.441 -24.271  16.678  0.00  0.00     0.115 C 
HETATM   22  C   UNK     0     -23.405 -24.597  18.152  0.00  0.00     0.022 A 
HETATM   23  N   UNK     0     -23.591 -25.784  18.744  0.00  0.00    -0.361 N 
HETATM   24  C   UNK     0     -23.327 -25.647  20.059  0.00  0.00     0.021 A 
HETATM   25  C   UNK     0     -22.973 -24.338  20.322  0.00  0.00    -0.031 A 
HETATM   26  C   UNK     0     -22.629 -23.691  21.648  0.00  0.00     0.051 C 
HETATM   27  C   UNK     0     -23.016 -23.646  19.117  0.00  0.00    -0.027 A 
HETATM   28  C   UNK     0     -23.310 -26.733  21.121  0.00  0.00     0.115 C 
HETATM   29  H   UNK     0     -23.050 -28.758  18.998  0.00  0.00     0.165 HD
HETATM   30  H   UNK     0     -20.118 -27.981  17.475  0.00  0.00     0.165 HD
HETATM   31  H   UNK     0     -21.062 -26.031  16.787  0.00  0.00     0.165 HD
HETATM   32  H   UNK     0     -23.952 -26.721  18.245  0.00  0.00     0.165 HD
ENDROOT
BRANCH   6  33
HETATM   33  C   UNK     0     -19.242 -29.674  21.687  0.00  0.00     0.051 C 
BRANCH  33  34
HETATM   34  C   UNK     0     -19.530 -30.932  22.472  0.00  0.00     0.114 C 
BRANCH  34  35
HETATM   35  C   UNK     0     -18.773 -30.840  23.754  0.00  0.00     0.139 C 
HETATM   36  O   UNK     0     -17.880 -29.957  23.905  0.00  0.00    -0.650 OA
BRANCH  35  37
HETATM   37  O   UNK     0     -19.006 -31.695  24.824  0.00  0.00    -0.776 OA
HETATM   38  H   UNK     0     -18.260 -32.193  25.283  0.00  0.00     0.167 HD
ENDBRANCH  35  37
ENDBRANCH  34  35
ENDBRANCH  33  34
ENDBRANCH   6  33
BRANCH  27  39
HETATM   39  C   UNK     0     -22.764 -22.183  19.013  0.00  0.00     0.051 C 
BRANCH  39  40
HETATM   40  C   UNK     0     -23.685 -21.375  18.214  0.00  0.00     0.114 C 
BRANCH  40  41
HETATM   41  C   UNK     0     -23.242 -20.600  17.077  0.00  0.00     0.139 C 
HETATM   42  O   UNK     0     -23.835 -19.595  16.662  0.00  0.00    -0.650 OA
BRANCH  41  43
HETATM   43  O   UNK     0     -22.063 -20.998  16.385  0.00  0.00    -0.776 OA
HETATM   44  H   UNK     0     -22.150 -21.871  15.878  0.00  0.00     0.167 HD
ENDBRANCH  41  43
ENDBRANCH  40  41
ENDBRANCH  39  40
ENDBRANCH  27  39
BRANCH  11  45
HETATM   45  C   UNK     0     -21.207 -30.986  13.971  0.00  0.00     0.051 C 
BRANCH  45  46
HETATM   46  C   UNK     0     -19.991 -31.239  13.156  0.00  0.00     0.114 C 
BRANCH  46  47
HETATM   47  C   UNK     0     -19.650 -32.683  13.307  0.00  0.00     0.139 C 
HETATM   48  O   UNK     0     -20.194 -33.502  12.554  0.00  0.00    -0.650 OA
BRANCH  47  49
HETATM   49  O   UNK     0     -18.754 -33.097  14.260  0.00  0.00    -0.776 OA
HETATM   50  H   UNK     0     -18.786 -34.040  14.665  0.00  0.00     0.167 HD
ENDBRANCH  47  49
ENDBRANCH  46  47
ENDBRANCH  45  46
ENDBRANCH  11  45
BRANCH  18  51
HETATM   51  C   UNK     0     -24.555 -24.860  13.818  0.00  0.00     0.051 C 
BRANCH  51  52
HETATM   52  C   UNK     0     -23.997 -23.805  12.875  0.00  0.00     0.114 C 
BRANCH  52  53
HETATM   53  C   UNK     0     -23.809 -22.507  13.551  0.00  0.00     0.139 C 
HETATM   54  O   UNK     0     -24.759 -21.971  14.143  0.00  0.00    -0.650 OA
BRANCH  53  55
HETATM   55  O   UNK     0     -22.579 -21.896  13.519  0.00  0.00    -0.776 OA
HETATM   56  H   UNK     0     -22.356 -21.056  13.039  0.00  0.00     0.167 HD
ENDBRANCH  53  55
ENDBRANCH  52  53
ENDBRANCH  51  52
ENDBRANCH  18  51
TORSDOF 16
ENDMDL
