MODEL 1
REMARK VINA RESULT:     -10.6      0.000      0.000
REMARK  16 active torsions:
REMARK  status: ('A' for Active; 'I' for Inactive)
REMARK    1  A    between atoms: C_6  and  C_7 
REMARK    2  A    between atoms: C_7  and  C_8 
REMARK    3  A    between atoms: C_8  and  C_9 
REMARK    4  A    between atoms: C_9  and  O_11 
REMARK    5  A    between atoms: C_16  and  C_17 
REMARK    6  A    between atoms: C_17  and  C_18 
REMARK    7  A    between atoms: C_18  and  C_19 
REMARK    8  A    between atoms: C_19  and  O_21 
REMARK    9  A    between atoms: C_28  and  C_29 
REMARK   10  A    between atoms: C_29  and  C_30 
REMARK   11  A    between atoms: C_30  and  C_31 
REMARK   12  A    between atoms: C_31  and  O_33 
REMARK   13  A    between atoms: C_42  and  C_43 
REMARK   14  A    between atoms: C_43  and  C_44 
REMARK   15  A    between atoms: C_44  and  C_45 
REMARK   16  A    between atoms: C_45  and  O_47 
ROOT
HETATM    1  C   UNK     0      -0.456   6.819  24.082  0.00  0.00     0.051 C 
HETATM    2  C   UNK     0       0.913   6.538  23.496  0.00  0.00    -0.031 A 
HETATM    3  C   UNK     0       1.475   6.995  22.315  0.00  0.00     0.021 A 
HETATM    4  N   UNK     0       2.712   6.461  22.179  0.00  0.00    -0.361 N 
HETATM    5  C   UNK     0       2.954   5.681  23.253  0.00  0.00     0.022 A 
HETATM    6  C   UNK     0       1.848   5.704  24.096  0.00  0.00    -0.027 A 
HETATM    7  C   UNK     0       4.200   4.943  23.632  0.00  0.00     0.115 C 
HETATM    8  C   UNK     0       5.514   5.680  23.439  0.00  0.00     0.021 A 
HETATM    9  N   UNK     0       5.771   6.987  23.603  0.00  0.00    -0.361 N 
HETATM   10  C   UNK     0       7.049   7.213  23.231  0.00  0.00     0.022 A 
HETATM   11  C   UNK     0       7.634   6.017  22.826  0.00  0.00    -0.027 A 
HETATM   12  C   UNK     0       6.672   5.047  22.955  0.00  0.00    -0.031 A 
HETATM   13  C   UNK     0       6.860   3.582  22.632  0.00  0.00     0.051 C 
HETATM   14  C   UNK     0       7.751   8.567  23.193  0.00  0.00     0.115 C 
HETATM   15  C   UNK     0       7.104   9.570  22.251  0.00  0.00     0.021 A 
HETATM   16  N   UNK     0       5.838  10.028  22.282  0.00  0.00    -0.361 N 
HETATM   17  C   UNK     0       5.640  10.841  21.242  0.00  0.00     0.022 A 
HETATM   18  C   UNK     0       6.837  10.924  20.503  0.00  0.00    -0.027 A 
HETATM   19  C   UNK     0       7.746  10.124  21.145  0.00  0.00    -0.031 A 
HETATM   20  C   UNK     0       9.186   9.954  20.697  0.00  0.00     0.051 C 
HETATM   21  C   UNK     0       4.384  11.549  20.788  0.00  0.00     0.115 C 
HETATM   22  C   UNK     0       3.066  10.846  21.014  0.00  0.00     0.022 A 
HETATM   23  N   UNK     0       2.782   9.546  20.862  0.00  0.00    -0.361 N 
HETATM   24  C   UNK     0       1.530   9.331  21.312  0.00  0.00     0.021 A 
HETATM   25  C   UNK     0       0.990  10.524  21.754  0.00  0.00    -0.031 A 
HETATM   26  C   UNK     0      -0.394  10.798  22.306  0.00  0.00     0.051 C 
HETATM   27  C   UNK     0       1.955  11.508  21.573  0.00  0.00    -0.027 A 
HETATM   28  C   UNK     0       0.799   8.004  21.431  0.00  0.00     0.115 C 
HETATM   29  H   UNK     0       3.391   6.608  21.307  0.00  0.00     0.165 HD
HETATM   30  H   UNK     0       5.068   7.745  24.028  0.00  0.00     0.165 HD
HETATM   31  H   UNK     0       5.082   9.811  23.081  0.00  0.00     0.165 HD
HETATM   32  H   UNK     0       3.449   8.775  20.396  0.00  0.00     0.165 HD
ENDROOT
BRANCH   6  33
HETATM   33  C   UNK     0       1.614   5.000  25.409  0.00  0.00     0.051 C 
BRANCH  33  34
HETATM   34  C   UNK     0       1.137   3.586  25.180  0.00  0.00     0.114 C 
BRANCH  34  35
HETATM   35  C   UNK     0       2.076   2.677  25.900  0.00  0.00     0.139 C 
HETATM   36  O   UNK     0       2.873   1.940  25.249  0.00  0.00    -0.650 OA
BRANCH  35  37
HETATM   37  O   UNK     0       2.125   2.595  27.286  0.00  0.00    -0.776 OA
HETATM   38  H   UNK     0       2.963   2.330  27.776  0.00  0.00     0.167 HD
ENDBRANCH  35  37
ENDBRANCH  34  35
ENDBRANCH  33  34
ENDBRANCH   6  33
BRANCH  27  39
HETATM   39  C   UNK     0       1.711  12.946  21.870  0.00  0.00     0.051 C 
BRANCH  39  40
HETATM   40  C   UNK     0       1.454  13.852  20.751  0.00  0.00     0.114 C 
BRANCH  40  41
HETATM   41  C   UNK     0       2.318  14.973  20.453  0.00  0.00     0.139 C 
HETATM   42  O   UNK     0       3.548  14.942  20.589  0.00  0.00    -0.650 OA
BRANCH  41  43
HETATM   43  O   UNK     0       1.739  16.183  19.977  0.00  0.00    -0.776 OA
HETATM   44  H   UNK     0       2.393  16.811  19.525  0.00  0.00     0.167 HD
ENDBRANCH  41  43
ENDBRANCH  40  41
ENDBRANCH  39  40
ENDBRANCH  27  39
BRANCH  11  45
HETATM   45  C   UNK     0       9.036   5.772  22.337  0.00  0.00     0.051 C 
BRANCH  45  46
HETATM   46  C   UNK     0      10.085   6.010  23.361  0.00  0.00     0.114 C 
BRANCH  46  47
HETATM   47  C   UNK     0      11.188   6.762  22.697  0.00  0.00     0.139 C 
HETATM   48  O   UNK     0      11.195   6.834  21.460  0.00  0.00    -0.650 OA
BRANCH  47  49
HETATM   49  O   UNK     0      12.176   7.361  23.438  0.00  0.00    -0.776 OA
HETATM   50  H   UNK     0      12.302   7.164  24.438  0.00  0.00     0.167 HD
ENDBRANCH  47  49
ENDBRANCH  46  47
ENDBRANCH  45  46
ENDBRANCH  11  45
BRANCH  18  51
HETATM   51  C   UNK     0       7.105  11.737  19.263  0.00  0.00     0.051 C 
BRANCH  51  52
HETATM   52  C   UNK     0       6.788  10.832  18.082  0.00  0.00     0.114 C 
BRANCH  52  53
HETATM   53  C   UNK     0       7.840  10.887  17.049  0.00  0.00     0.139 C 
HETATM   54  O   UNK     0       8.975  11.295  17.340  0.00  0.00    -0.650 OA
BRANCH  53  55
HETATM   55  O   UNK     0       7.553  10.489  15.766  0.00  0.00    -0.776 OA
HETATM   56  H   UNK     0       7.546   9.553  15.433  0.00  0.00     0.167 HD
ENDBRANCH  53  55
ENDBRANCH  52  53
ENDBRANCH  51  52
ENDBRANCH  18  51
TORSDOF 16
ENDMDL
MODEL 2
REMARK VINA RESULT:     -10.6      2.560      7.190
REMARK  16 active torsions:
REMARK  status: ('A' for Active; 'I' for Inactive)
REMARK    1  A    between atoms: C_6  and  C_7 
REMARK    2  A    between atoms: C_7  and  C_8 
REMARK    3  A    between atoms: C_8  and  C_9 
REMARK    4  A    between atoms: C_9  and  O_11 
REMARK    5  A    between atoms: C_16  and  C_17 
REMARK    6  A    between atoms: C_17  and  C_18 
REMARK    7  A    between atoms: C_18  and  C_19 
REMARK    8  A    between atoms: C_19  and  O_21 
REMARK    9  A    between atoms: C_28  and  C_29 
REMARK   10  A    between atoms: C_29  and  C_30 
REMARK   11  A    between atoms: C_30  and  C_31 
REMARK   12  A    between atoms: C_31  and  O_33 
REMARK   13  A    between atoms: C_42  and  C_43 
REMARK   14  A    between atoms: C_43  and  C_44 
REMARK   15  A    between atoms: C_44  and  C_45 
REMARK   16  A    between atoms: C_45  and  O_47 
ROOT
HETATM    1  C   UNK     0       7.632   3.726  22.928  0.00  0.00     0.051 C 
HETATM    2  C   UNK     0       6.452   4.578  23.348  0.00  0.00    -0.031 A 
HETATM    3  C   UNK     0       6.413   5.921  23.687  0.00  0.00     0.021 A 
HETATM    4  N   UNK     0       5.145   6.254  24.028  0.00  0.00    -0.361 N 
HETATM    5  C   UNK     0       4.374   5.154  23.905  0.00  0.00     0.022 A 
HETATM    6  C   UNK     0       5.160   4.087  23.484  0.00  0.00    -0.027 A 
HETATM    7  C   UNK     0       2.893   5.007  24.069  0.00  0.00     0.115 C 
HETATM    8  C   UNK     0       2.029   6.103  23.472  0.00  0.00     0.021 A 
HETATM    9  N   UNK     0       2.226   6.802  22.343  0.00  0.00    -0.361 N 
HETATM   10  C   UNK     0       1.255   7.736  22.253  0.00  0.00     0.022 A 
HETATM   11  C   UNK     0       0.403   7.629  23.349  0.00  0.00    -0.027 A 
HETATM   12  C   UNK     0       0.885   6.602  24.121  0.00  0.00    -0.031 A 
HETATM   13  C   UNK     0       0.272   6.120  25.417  0.00  0.00     0.051 C 
HETATM   14  C   UNK     0       1.122   8.796  21.164  0.00  0.00     0.115 C 
HETATM   15  C   UNK     0       2.304   9.749  21.084  0.00  0.00     0.021 A 
HETATM   16  N   UNK     0       3.596   9.438  20.871  0.00  0.00    -0.361 N 
HETATM   17  C   UNK     0       4.332  10.550  20.943  0.00  0.00     0.022 A 
HETATM   18  C   UNK     0       3.476  11.638  21.206  0.00  0.00    -0.027 A 
HETATM   19  C   UNK     0       2.209  11.123  21.291  0.00  0.00    -0.031 A 
HETATM   20  C   UNK     0       0.970  11.966  21.530  0.00  0.00     0.051 C 
HETATM   21  C   UNK     0       5.830  10.732  20.850  0.00  0.00     0.115 C 
HETATM   22  C   UNK     0       6.702   9.628  21.400  0.00  0.00     0.022 A 
HETATM   23  N   UNK     0       6.528   8.912  22.519  0.00  0.00    -0.361 N 
HETATM   24  C   UNK     0       7.460   7.939  22.548  0.00  0.00     0.021 A 
HETATM   25  C   UNK     0       8.261   8.037  21.426  0.00  0.00    -0.031 A 
HETATM   26  C   UNK     0       9.460   7.198  21.035  0.00  0.00     0.051 C 
HETATM   27  C   UNK     0       7.795   9.111  20.676  0.00  0.00    -0.027 A 
HETATM   28  C   UNK     0       7.608   6.824  23.569  0.00  0.00     0.115 C 
HETATM   29  H   UNK     0       4.812   7.254  24.391  0.00  0.00     0.165 HD
HETATM   30  H   UNK     0       3.021   6.607  21.583  0.00  0.00     0.165 HD
HETATM   31  H   UNK     0       3.993   8.421  20.617  0.00  0.00     0.165 HD
HETATM   32  H   UNK     0       5.771   9.115  23.321  0.00  0.00     0.165 HD
ENDROOT
BRANCH   6  33
HETATM   33  C   UNK     0       4.782   2.654  23.207  0.00  0.00     0.051 C 
BRANCH  33  34
HETATM   34  C   UNK     0       4.978   1.801  24.438  0.00  0.00     0.114 C 
BRANCH  34  35
HETATM   35  C   UNK     0       5.918   0.701  24.075  0.00  0.00     0.139 C 
HETATM   36  O   UNK     0       6.264   0.532  22.869  0.00  0.00    -0.650 OA
BRANCH  35  37
HETATM   37  O   UNK     0       6.451  -0.171  25.016  0.00  0.00    -0.776 OA
HETATM   38  H   UNK     0       6.027  -0.306  25.920  0.00  0.00     0.167 HD
ENDBRANCH  35  37
ENDBRANCH  34  35
ENDBRANCH  33  34
ENDBRANCH   6  33
BRANCH  27  39
HETATM   39  C   UNK     0       8.455   9.572  19.425  0.00  0.00     0.051 C 
BRANCH  39  40
HETATM   40  C   UNK     0       9.625  10.442  19.537  0.00  0.00     0.114 C 
BRANCH  40  41
HETATM   41  C   UNK     0      10.763  10.321  18.653  0.00  0.00     0.139 C 
HETATM   42  O   UNK     0      11.274  11.282  18.062  0.00  0.00    -0.650 OA
BRANCH  41  43
HETATM   43  O   UNK     0      11.338   9.037  18.438  0.00  0.00    -0.776 OA
HETATM   44  H   UNK     0      11.824   8.938  17.555  0.00  0.00     0.167 HD
ENDBRANCH  41  43
ENDBRANCH  40  41
ENDBRANCH  39  40
ENDBRANCH  27  39
BRANCH  11  45
HETATM   45  C   UNK     0      -0.819   8.445  23.675  0.00  0.00     0.051 C 
BRANCH  45  46
HETATM   46  C   UNK     0      -2.080   7.897  23.115  0.00  0.00     0.114 C 
BRANCH  46  47
HETATM   47  C   UNK     0      -2.445   8.743  21.942  0.00  0.00     0.139 C 
HETATM   48  O   UNK     0      -3.171   8.256  21.064  0.00  0.00    -0.650 OA
BRANCH  47  49
HETATM   49  O   UNK     0      -1.988  10.032  21.835  0.00  0.00    -0.776 OA
HETATM   50  H   UNK     0      -1.372  10.452  22.542  0.00  0.00     0.167 HD
ENDBRANCH  47  49
ENDBRANCH  46  47
ENDBRANCH  45  46
ENDBRANCH  11  45
BRANCH  18  51
HETATM   51  C   UNK     0       3.844  13.092  21.348  0.00  0.00     0.051 C 
BRANCH  51  52
HETATM   52  C   UNK     0       4.097  13.607  19.939  0.00  0.00     0.114 C 
BRANCH  52  53
HETATM   53  C   UNK     0       5.334  14.408  19.860  0.00  0.00     0.139 C 
HETATM   54  O   UNK     0       6.205  14.295  20.738  0.00  0.00    -0.650 OA
BRANCH  53  55
HETATM   55  O   UNK     0       5.514  15.279  18.813  0.00  0.00    -0.776 OA
HETATM   56  H   UNK     0       6.384  15.636  18.493  0.00  0.00     0.167 HD
ENDBRANCH  53  55
ENDBRANCH  52  53
ENDBRANCH  51  52
ENDBRANCH  18  51
TORSDOF 16
ENDMDL
MODEL 3
REMARK VINA RESULT:     -10.5      2.621      7.757
REMARK  16 active torsions:
REMARK  status: ('A' for Active; 'I' for Inactive)
REMARK    1  A    between atoms: C_6  and  C_7 
REMARK    2  A    between atoms: C_7  and  C_8 
REMARK    3  A    between atoms: C_8  and  C_9 
REMARK    4  A    between atoms: C_9  and  O_11 
REMARK    5  A    between atoms: C_16  and  C_17 
REMARK    6  A    between atoms: C_17  and  C_18 
REMARK    7  A    between atoms: C_18  and  C_19 
REMARK    8  A    between atoms: C_19  and  O_21 
REMARK    9  A    between atoms: C_28  and  C_29 
REMARK   10  A    between atoms: C_29  and  C_30 
REMARK   11  A    between atoms: C_30  and  C_31 
REMARK   12  A    between atoms: C_31  and  O_33 
REMARK   13  A    between atoms: C_42  and  C_43 
REMARK   14  A    between atoms: C_43  and  C_44 
REMARK   15  A    between atoms: C_44  and  C_45 
REMARK   16  A    between atoms: C_45  and  O_47 
ROOT
HETATM    1  C   UNK     0       0.448   6.754  23.021  0.00  0.00     0.051 C 
HETATM    2  C   UNK     0       1.601   7.716  22.817  0.00  0.00    -0.031 A 
HETATM    3  C   UNK     0       2.826   7.770  23.463  0.00  0.00     0.021 A 
HETATM    4  N   UNK     0       3.534   8.818  22.979  0.00  0.00    -0.361 N 
HETATM    5  C   UNK     0       2.790   9.427  22.032  0.00  0.00     0.022 A 
HETATM    6  C   UNK     0       1.573   8.765  21.908  0.00  0.00    -0.027 A 
HETATM    7  C   UNK     0       3.145  10.569  21.131  0.00  0.00     0.115 C 
HETATM    8  C   UNK     0       4.534  10.546  20.517  0.00  0.00     0.021 A 
HETATM    9  N   UNK     0       5.247   9.488  20.102  0.00  0.00    -0.361 N 
HETATM   10  C   UNK     0       6.462   9.929  19.713  0.00  0.00     0.022 A 
HETATM   11  C   UNK     0       6.530  11.310  19.872  0.00  0.00    -0.027 A 
HETATM   12  C   UNK     0       5.318  11.705  20.379  0.00  0.00    -0.031 A 
HETATM   13  C   UNK     0       4.931  13.130  20.708  0.00  0.00     0.051 C 
HETATM   14  C   UNK     0       7.622   9.064  19.227  0.00  0.00     0.115 C 
HETATM   15  C   UNK     0       8.111   8.056  20.254  0.00  0.00     0.021 A 
HETATM   16  N   UNK     0       7.400   7.079  20.850  0.00  0.00    -0.361 N 
HETATM   17  C   UNK     0       8.173   6.456  21.742  0.00  0.00     0.022 A 
HETATM   18  C   UNK     0       9.451   7.048  21.720  0.00  0.00    -0.027 A 
HETATM   19  C   UNK     0       9.400   8.048  20.783  0.00  0.00    -0.031 A 
HETATM   20  C   UNK     0      10.585   8.921  20.414  0.00  0.00     0.051 C 
HETATM   21  C   UNK     0       7.836   5.348  22.713  0.00  0.00     0.115 C 
HETATM   22  C   UNK     0       6.443   5.333  23.298  0.00  0.00     0.022 A 
HETATM   23  N   UNK     0       5.707   6.371  23.716  0.00  0.00    -0.361 N 
HETATM   24  C   UNK     0       4.475   5.919  24.026  0.00  0.00     0.021 A 
HETATM   25  C   UNK     0       4.420   4.555  23.812  0.00  0.00    -0.031 A 
HETATM   26  C   UNK     0       3.270   3.598  24.052  0.00  0.00     0.051 C 
HETATM   27  C   UNK     0       5.668   4.157  23.346  0.00  0.00    -0.027 A 
HETATM   28  C   UNK     0       3.267   6.733  24.457  0.00  0.00     0.115 C 
HETATM   29  H   UNK     0       4.538   9.144  23.337  0.00  0.00     0.165 HD
HETATM   30  H   UNK     0       4.879   8.435  20.036  0.00  0.00     0.165 HD
HETATM   31  H   UNK     0       6.345   6.792  20.602  0.00  0.00     0.165 HD
HETATM   32  H   UNK     0       6.064   7.427  23.838  0.00  0.00     0.165 HD
ENDROOT
BRANCH   6  33
HETATM   33  C   UNK     0       0.401   9.051  21.003  0.00  0.00     0.051 C 
BRANCH  33  34
HETATM   34  C   UNK     0      -0.292  10.329  21.414  0.00  0.00     0.114 C 
BRANCH  34  35
HETATM   35  C   UNK     0      -1.332   9.970  22.419  0.00  0.00     0.139 C 
HETATM   36  O   UNK     0      -2.429   9.460  22.046  0.00  0.00    -0.650 OA
BRANCH  35  37
HETATM   37  O   UNK     0      -1.157  10.168  23.783  0.00  0.00    -0.776 OA
HETATM   38  H   UNK     0      -0.322   9.872  24.263  0.00  0.00     0.167 HD
ENDBRANCH  35  37
ENDBRANCH  34  35
ENDBRANCH  33  34
ENDBRANCH   6  33
BRANCH  27  39
HETATM   39  C   UNK     0       6.014   2.736  23.071  0.00  0.00     0.051 C 
BRANCH  39  40
HETATM   40  C   UNK     0       6.550   1.927  24.165  0.00  0.00     0.114 C 
BRANCH  40  41
HETATM   41  C   UNK     0       6.095   0.580  24.423  0.00  0.00     0.139 C 
HETATM   42  O   UNK     0       6.858  -0.367  24.654  0.00  0.00    -0.650 OA
BRANCH  41  43
HETATM   43  O   UNK     0       4.697   0.310  24.414  0.00  0.00    -0.776 OA
HETATM   44  H   UNK     0       4.445  -0.582  24.005  0.00  0.00     0.167 HD
ENDBRANCH  41  43
ENDBRANCH  40  41
ENDBRANCH  39  40
ENDBRANCH  27  39
BRANCH  11  45
HETATM   45  C   UNK     0       7.674  12.239  19.566  0.00  0.00     0.051 C 
BRANCH  45  46
HETATM   46  C   UNK     0       8.931  11.911  20.286  0.00  0.00     0.114 C 
BRANCH  46  47
HETATM   47  C   UNK     0       8.910  12.661  21.574  0.00  0.00     0.139 C 
HETATM   48  O   UNK     0       8.529  13.840  21.567  0.00  0.00    -0.650 OA
BRANCH  47  49
HETATM   49  O   UNK     0       9.305  12.061  22.743  0.00  0.00    -0.776 OA
HETATM   50  H   UNK     0       8.649  11.883  23.513  0.00  0.00     0.167 HD
ENDBRANCH  47  49
ENDBRANCH  46  47
ENDBRANCH  45  46
ENDBRANCH  11  45
BRANCH  18  51
HETATM   51  C   UNK     0      10.662   6.668  22.532  0.00  0.00     0.051 C 
BRANCH  51  52
HETATM   52  C   UNK     0      10.601   7.501  23.803  0.00  0.00     0.114 C 
BRANCH  52  53
HETATM   53  C   UNK     0      10.909   6.698  25.002  0.00  0.00     0.139 C 
HETATM   54  O   UNK     0       9.990   6.284  25.726  0.00  0.00    -0.650 OA
BRANCH  53  55
HETATM   55  O   UNK     0      12.217   6.414  25.313  0.00  0.00    -0.776 OA
HETATM   56  H   UNK     0      12.939   7.079  25.464  0.00  0.00     0.167 HD
ENDBRANCH  53  55
ENDBRANCH  52  53
ENDBRANCH  51  52
ENDBRANCH  18  51
TORSDOF 16
ENDMDL
MODEL 4
REMARK VINA RESULT:     -10.1      2.774      7.966
REMARK  16 active torsions:
REMARK  status: ('A' for Active; 'I' for Inactive)
REMARK    1  A    between atoms: C_6  and  C_7 
REMARK    2  A    between atoms: C_7  and  C_8 
REMARK    3  A    between atoms: C_8  and  C_9 
REMARK    4  A    between atoms: C_9  and  O_11 
REMARK    5  A    between atoms: C_16  and  C_17 
REMARK    6  A    between atoms: C_17  and  C_18 
REMARK    7  A    between atoms: C_18  and  C_19 
REMARK    8  A    between atoms: C_19  and  O_21 
REMARK    9  A    between atoms: C_28  and  C_29 
REMARK   10  A    between atoms: C_29  and  C_30 
REMARK   11  A    between atoms: C_30  and  C_31 
REMARK   12  A    between atoms: C_31  and  O_33 
REMARK   13  A    between atoms: C_42  and  C_43 
REMARK   14  A    between atoms: C_43  and  C_44 
REMARK   15  A    between atoms: C_44  and  C_45 
REMARK   16  A    between atoms: C_45  and  O_47 
ROOT
HETATM    1  C   UNK     0      -0.652   4.413  22.946  0.00  0.00     0.051 C 
HETATM    2  C   UNK     0       0.164   5.689  22.988  0.00  0.00    -0.031 A 
HETATM    3  C   UNK     0       1.285   5.991  23.745  0.00  0.00     0.021 A 
HETATM    4  N   UNK     0       1.665   7.264  23.482  0.00  0.00    -0.361 N 
HETATM    5  C   UNK     0       0.815   7.777  22.568  0.00  0.00     0.022 A 
HETATM    6  C   UNK     0      -0.138   6.819  22.239  0.00  0.00    -0.027 A 
HETATM    7  C   UNK     0       0.848   9.104  21.875  0.00  0.00     0.115 C 
HETATM    8  C   UNK     0       2.205   9.587  21.394  0.00  0.00     0.021 A 
HETATM    9  N   UNK     0       3.223   8.866  20.899  0.00  0.00    -0.361 N 
HETATM   10  C   UNK     0       4.264   9.699  20.690  0.00  0.00     0.022 A 
HETATM   11  C   UNK     0       3.904  10.994  21.051  0.00  0.00    -0.027 A 
HETATM   12  C   UNK     0       2.608  10.931  21.495  0.00  0.00    -0.031 A 
HETATM   13  C   UNK     0       1.794  12.107  21.988  0.00  0.00     0.051 C 
HETATM   14  C   UNK     0       5.651   9.301  20.194  0.00  0.00     0.115 C 
HETATM   15  C   UNK     0       6.375   8.325  21.107  0.00  0.00     0.021 A 
HETATM   16  N   UNK     0       5.967   7.100  21.489  0.00  0.00    -0.361 N 
HETATM   17  C   UNK     0       6.851   6.592  22.350  0.00  0.00     0.022 A 
HETATM   18  C   UNK     0       7.891   7.526  22.530  0.00  0.00    -0.027 A 
HETATM   19  C   UNK     0       7.581   8.606  21.745  0.00  0.00    -0.031 A 
HETATM   20  C   UNK     0       8.463   9.835  21.615  0.00  0.00     0.051 C 
HETATM   21  C   UNK     0       6.821   5.290  23.118  0.00  0.00     0.115 C 
HETATM   22  C   UNK     0       5.474   4.775  23.565  0.00  0.00     0.022 A 
HETATM   23  N   UNK     0       4.441   5.470  24.058  0.00  0.00    -0.361 N 
HETATM   24  C   UNK     0       3.390   4.634  24.185  0.00  0.00     0.021 A 
HETATM   25  C   UNK     0       3.759   3.368  23.775  0.00  0.00    -0.031 A 
HETATM   26  C   UNK     0       2.943   2.092  23.770  0.00  0.00     0.051 C 
HETATM   27  C   UNK     0       5.088   3.432  23.373  0.00  0.00    -0.027 A 
HETATM   28  C   UNK     0       1.975   4.980  24.616  0.00  0.00     0.115 C 
HETATM   29  H   UNK     0       2.507   7.805  23.973  0.00  0.00     0.165 HD
HETATM   30  H   UNK     0       3.193   7.777  20.650  0.00  0.00     0.165 HD
HETATM   31  H   UNK     0       5.060   6.563  21.107  0.00  0.00     0.165 HD
HETATM   32  H   UNK     0       4.456   6.549  24.361  0.00  0.00     0.165 HD
ENDROOT
BRANCH   6  33
HETATM   33  C   UNK     0      -1.300   6.895  21.281  0.00  0.00     0.051 C 
BRANCH  33  34
HETATM   34  C   UNK     0      -2.544   7.381  21.987  0.00  0.00     0.114 C 
BRANCH  34  35
HETATM   35  C   UNK     0      -3.717   6.781  21.288  0.00  0.00     0.139 C 
HETATM   36  O   UNK     0      -4.868   7.288  21.426  0.00  0.00    -0.650 OA
BRANCH  35  37
HETATM   37  O   UNK     0      -3.610   5.665  20.468  0.00  0.00    -0.776 OA
HETATM   38  H   UNK     0      -3.819   5.704  19.483  0.00  0.00     0.167 HD
ENDBRANCH  35  37
ENDBRANCH  34  35
ENDBRANCH  33  34
ENDBRANCH   6  33
BRANCH  27  39
HETATM   39  C   UNK     0       5.860   2.239  22.930  0.00  0.00     0.051 C 
BRANCH  39  40
HETATM   40  C   UNK     0       6.539   1.435  23.946  0.00  0.00     0.114 C 
BRANCH  40  41
HETATM   41  C   UNK     0       6.268   0.026  24.120  0.00  0.00     0.139 C 
HETATM   42  O   UNK     0       5.592  -0.643  23.328  0.00  0.00    -0.650 OA
BRANCH  41  43
HETATM   43  O   UNK     0       6.801  -0.644  25.258  0.00  0.00    -0.776 OA
HETATM   44  H   UNK     0       6.877  -0.067  26.087  0.00  0.00     0.167 HD
ENDBRANCH  41  43
ENDBRANCH  40  41
ENDBRANCH  39  40
ENDBRANCH  27  39
BRANCH  11  45
HETATM   45  C   UNK     0       4.726  12.253  20.986  0.00  0.00     0.051 C 
BRANCH  45  46
HETATM   46  C   UNK     0       4.452  13.096  19.794  0.00  0.00     0.114 C 
BRANCH  46  47
HETATM   47  C   UNK     0       5.301  14.316  19.911  0.00  0.00     0.139 C 
HETATM   48  O   UNK     0       5.737  14.629  21.028  0.00  0.00    -0.650 OA
BRANCH  47  49
HETATM   49  O   UNK     0       5.593  15.077  18.808  0.00  0.00    -0.776 OA
HETATM   50  H   UNK     0       5.153  14.907  17.896  0.00  0.00     0.167 HD
ENDBRANCH  47  49
ENDBRANCH  46  47
ENDBRANCH  45  46
ENDBRANCH  11  45
BRANCH  18  51
HETATM   51  C   UNK     0       9.122   7.388  23.387  0.00  0.00     0.051 C 
BRANCH  51  52
HETATM   52  C   UNK     0      10.173   6.713  22.517  0.00  0.00     0.114 C 
BRANCH  52  53
HETATM   53  C   UNK     0      11.421   7.497  22.456  0.00  0.00     0.139 C 
HETATM   54  O   UNK     0      11.646   8.233  21.482  0.00  0.00    -0.650 OA
BRANCH  53  55
HETATM   55  O   UNK     0      12.333   7.405  23.480  0.00  0.00    -0.776 OA
HETATM   56  H   UNK     0      12.752   6.569  23.815  0.00  0.00     0.167 HD
ENDBRANCH  53  55
ENDBRANCH  52  53
ENDBRANCH  51  52
ENDBRANCH  18  51
TORSDOF 16
ENDMDL
MODEL 5
REMARK VINA RESULT:     -10.1      2.563      9.679
REMARK  16 active torsions:
REMARK  status: ('A' for Active; 'I' for Inactive)
REMARK    1  A    between atoms: C_6  and  C_7 
REMARK    2  A    between atoms: C_7  and  C_8 
REMARK    3  A    between atoms: C_8  and  C_9 
REMARK    4  A    between atoms: C_9  and  O_11 
REMARK    5  A    between atoms: C_16  and  C_17 
REMARK    6  A    between atoms: C_17  and  C_18 
REMARK    7  A    between atoms: C_18  and  C_19 
REMARK    8  A    between atoms: C_19  and  O_21 
REMARK    9  A    between atoms: C_28  and  C_29 
REMARK   10  A    between atoms: C_29  and  C_30 
REMARK   11  A    between atoms: C_30  and  C_31 
REMARK   12  A    between atoms: C_31  and  O_33 
REMARK   13  A    between atoms: C_42  and  C_43 
REMARK   14  A    between atoms: C_43  and  C_44 
REMARK   15  A    between atoms: C_44  and  C_45 
REMARK   16  A    between atoms: C_45  and  O_47 
ROOT
HETATM    1  C   UNK     0       8.625  12.111  20.302  0.00  0.00     0.051 C 
HETATM    2  C   UNK     0       7.396  11.226  20.318  0.00  0.00    -0.031 A 
HETATM    3  C   UNK     0       7.277   9.879  20.012  0.00  0.00     0.021 A 
HETATM    4  N   UNK     0       5.980   9.511  20.134  0.00  0.00    -0.361 N 
HETATM    5  C   UNK     0       5.270  10.592  20.519  0.00  0.00     0.022 A 
HETATM    6  C   UNK     0       6.124  11.683  20.641  0.00  0.00    -0.027 A 
HETATM    7  C   UNK     0       3.821  10.701  20.880  0.00  0.00     0.115 C 
HETATM    8  C   UNK     0       3.248   9.588  21.739  0.00  0.00     0.021 A 
HETATM    9  N   UNK     0       3.844   8.903  22.728  0.00  0.00    -0.361 N 
HETATM   10  C   UNK     0       2.990   7.946  23.149  0.00  0.00     0.022 A 
HETATM   11  C   UNK     0       1.808   8.022  22.418  0.00  0.00    -0.027 A 
HETATM   12  C   UNK     0       1.964   9.054  21.528  0.00  0.00    -0.031 A 
HETATM   13  C   UNK     0       0.926   9.510  20.527  0.00  0.00     0.051 C 
HETATM   14  C   UNK     0       3.273   6.891  24.215  0.00  0.00     0.115 C 
HETATM   15  C   UNK     0       4.434   5.970  23.878  0.00  0.00     0.021 A 
HETATM   16  N   UNK     0       5.711   6.315  23.628  0.00  0.00    -0.361 N 
HETATM   17  C   UNK     0       6.405   5.221  23.303  0.00  0.00     0.022 A 
HETATM   18  C   UNK     0       5.541   4.110  23.353  0.00  0.00    -0.027 A 
HETATM   19  C   UNK     0       4.310   4.591  23.715  0.00  0.00    -0.031 A 
HETATM   20  C   UNK     0       3.088   3.715  23.921  0.00  0.00     0.051 C 
HETATM   21  C   UNK     0       7.846   5.079  22.869  0.00  0.00     0.115 C 
HETATM   22  C   UNK     0       8.443   6.199  22.051  0.00  0.00     0.022 A 
HETATM   23  N   UNK     0       7.871   6.901  21.064  0.00  0.00    -0.361 N 
HETATM   24  C   UNK     0       8.709   7.898  20.713  0.00  0.00     0.021 A 
HETATM   25  C   UNK     0       9.852   7.830  21.486  0.00  0.00    -0.031 A 
HETATM   26  C   UNK     0      11.090   8.701  21.437  0.00  0.00     0.051 C 
HETATM   27  C   UNK     0       9.705   6.750  22.350  0.00  0.00    -0.027 A 
HETATM   28  C   UNK     0       8.463   9.008  19.706  0.00  0.00     0.115 C 
HETATM   29  H   UNK     0       5.568   8.501  19.908  0.00  0.00     0.165 HD
HETATM   30  H   UNK     0       4.849   9.125  23.165  0.00  0.00     0.165 HD
HETATM   31  H   UNK     0       6.144   7.344  23.729  0.00  0.00     0.165 HD
HETATM   32  H   UNK     0       6.888   6.673  20.575  0.00  0.00     0.165 HD
ENDROOT
BRANCH   6  33
HETATM   33  C   UNK     0       5.828  13.108  21.034  0.00  0.00     0.051 C 
BRANCH  33  34
HETATM   34  C   UNK     0       5.189  13.857  19.889  0.00  0.00     0.114 C 
BRANCH  34  35
HETATM   35  C   UNK     0       4.094  14.694  20.459  0.00  0.00     0.139 C 
HETATM   36  O   UNK     0       3.468  14.309  21.488  0.00  0.00    -0.650 OA
BRANCH  35  37
HETATM   37  O   UNK     0       3.717  15.911  19.905  0.00  0.00    -0.776 OA
HETATM   38  H   UNK     0       4.391  16.615  19.651  0.00  0.00     0.167 HD
ENDBRANCH  35  37
ENDBRANCH  34  35
ENDBRANCH  33  34
ENDBRANCH   6  33
BRANCH  27  39
HETATM   39  C   UNK     0      10.771   6.316  23.293  0.00  0.00     0.051 C 
BRANCH  39  40
HETATM   40  C   UNK     0      10.838   6.956  24.607  0.00  0.00     0.114 C 
BRANCH  40  41
HETATM   41  C   UNK     0       9.994   6.547  25.707  0.00  0.00     0.139 C 
HETATM   42  O   UNK     0       9.100   5.696  25.603  0.00  0.00    -0.650 OA
BRANCH  41  43
HETATM   43  O   UNK     0      10.186   7.144  26.985  0.00  0.00    -0.776 OA
HETATM   44  H   UNK     0      11.073   7.620  27.096  0.00  0.00     0.167 HD
ENDBRANCH  41  43
ENDBRANCH  40  41
ENDBRANCH  39  40
ENDBRANCH  27  39
BRANCH  11  45
HETATM   45  C   UNK     0       0.571   7.173  22.536  0.00  0.00     0.051 C 
BRANCH  45  46
HETATM   46  C   UNK     0      -0.143   7.320  23.830  0.00  0.00     0.114 C 
BRANCH  46  47
HETATM   47  C   UNK     0      -0.660   8.717  23.893  0.00  0.00     0.139 C 
HETATM   48  O   UNK     0      -1.545   9.057  23.094  0.00  0.00    -0.650 OA
BRANCH  47  49
HETATM   49  O   UNK     0      -0.168   9.608  24.812  0.00  0.00    -0.776 OA
HETATM   50  H   UNK     0       0.419   9.309  25.600  0.00  0.00     0.167 HD
ENDBRANCH  47  49
ENDBRANCH  46  47
ENDBRANCH  45  46
ENDBRANCH  11  45
BRANCH  18  51
HETATM   51  C   UNK     0       5.875   2.664  23.090  0.00  0.00     0.051 C 
BRANCH  51  52
HETATM   52  C   UNK     0       6.465   2.122  24.383  0.00  0.00     0.114 C 
BRANCH  52  53
HETATM   53  C   UNK     0       6.037   0.734  24.643  0.00  0.00     0.139 C 
HETATM   54  O   UNK     0       6.865  -0.113  25.014  0.00  0.00    -0.650 OA
BRANCH  53  55
HETATM   55  O   UNK     0       4.719   0.385  24.469  0.00  0.00    -0.776 OA
HETATM   56  H   UNK     0       3.941   1.000  24.519  0.00  0.00     0.167 HD
ENDBRANCH  53  55
ENDBRANCH  52  53
ENDBRANCH  51  52
ENDBRANCH  18  51
TORSDOF 16
ENDMDL
MODEL 6
REMARK VINA RESULT:     -10.0      2.163      6.910
REMARK  16 active torsions:
REMARK  status: ('A' for Active; 'I' for Inactive)
REMARK    1  A    between atoms: C_6  and  C_7 
REMARK    2  A    between atoms: C_7  and  C_8 
REMARK    3  A    between atoms: C_8  and  C_9 
REMARK    4  A    between atoms: C_9  and  O_11 
REMARK    5  A    between atoms: C_16  and  C_17 
REMARK    6  A    between atoms: C_17  and  C_18 
REMARK    7  A    between atoms: C_18  and  C_19 
REMARK    8  A    between atoms: C_19  and  O_21 
REMARK    9  A    between atoms: C_28  and  C_29 
REMARK   10  A    between atoms: C_29  and  C_30 
REMARK   11  A    between atoms: C_30  and  C_31 
REMARK   12  A    between atoms: C_31  and  O_33 
REMARK   13  A    between atoms: C_42  and  C_43 
REMARK   14  A    between atoms: C_43  and  C_44 
REMARK   15  A    between atoms: C_44  and  C_45 
REMARK   16  A    between atoms: C_45  and  O_47 
ROOT
HETATM    1  C   UNK     0       9.043   5.240  22.275  0.00  0.00     0.051 C 
HETATM    2  C   UNK     0       7.709   5.713  22.815  0.00  0.00    -0.031 A 
HETATM    3  C   UNK     0       7.326   6.980  23.228  0.00  0.00     0.021 A 
HETATM    4  N   UNK     0       6.046   6.932  23.667  0.00  0.00    -0.361 N 
HETATM    5  C   UNK     0       5.602   5.665  23.534  0.00  0.00     0.022 A 
HETATM    6  C   UNK     0       6.618   4.876  23.006  0.00  0.00    -0.027 A 
HETATM    7  C   UNK     0       4.237   5.104  23.785  0.00  0.00     0.115 C 
HETATM    8  C   UNK     0       3.060   5.934  23.304  0.00  0.00     0.021 A 
HETATM    9  N   UNK     0       2.969   6.699  22.205  0.00  0.00    -0.361 N 
HETATM   10  C   UNK     0       1.774   7.325  22.228  0.00  0.00     0.022 A 
HETATM   11  C   UNK     0       1.071   6.947  23.369  0.00  0.00    -0.027 A 
HETATM   12  C   UNK     0       1.876   6.071  24.051  0.00  0.00    -0.031 A 
HETATM   13  C   UNK     0       1.521   5.393  25.356  0.00  0.00     0.051 C 
HETATM   14  C   UNK     0       1.269   8.343  21.208  0.00  0.00     0.115 C 
HETATM   15  C   UNK     0       2.132   9.590  21.105  0.00  0.00     0.021 A 
HETATM   16  N   UNK     0       3.439   9.662  20.793  0.00  0.00    -0.361 N 
HETATM   17  C   UNK     0       3.842  10.931  20.878  0.00  0.00     0.022 A 
HETATM   18  C   UNK     0       2.741  11.727  21.254  0.00  0.00    -0.027 A 
HETATM   19  C   UNK     0       1.676  10.875  21.391  0.00  0.00    -0.031 A 
HETATM   20  C   UNK     0       0.274  11.329  21.755  0.00  0.00     0.051 C 
HETATM   21  C   UNK     0       5.219  11.528  20.698  0.00  0.00     0.115 C 
HETATM   22  C   UNK     0       6.402  10.695  21.131  0.00  0.00     0.022 A 
HETATM   23  N   UNK     0       6.519   9.921  22.218  0.00  0.00    -0.361 N 
HETATM   24  C   UNK     0       7.684   9.247  22.135  0.00  0.00     0.021 A 
HETATM   25  C   UNK     0       8.338   9.603  20.971  0.00  0.00    -0.031 A 
HETATM   26  C   UNK     0       9.689   9.148  20.459  0.00  0.00     0.051 C 
HETATM   27  C   UNK     0       7.537  10.529  20.312  0.00  0.00    -0.027 A 
HETATM   28  C   UNK     0       8.212   8.184  23.082  0.00  0.00     0.115 C 
HETATM   29  H   UNK     0       5.478   7.786  24.104  0.00  0.00     0.165 HD
HETATM   30  H   UNK     0       3.726   6.760  21.385  0.00  0.00     0.165 HD
HETATM   31  H   UNK     0       4.081   8.805  20.459  0.00  0.00     0.165 HD
HETATM   32  H   UNK     0       5.800   9.876  23.077  0.00  0.00     0.165 HD
ENDROOT
BRANCH   6  33
HETATM   33  C   UNK     0       6.631   3.404  22.677  0.00  0.00     0.051 C 
BRANCH  33  34
HETATM   34  C   UNK     0       6.420   2.576  23.922  0.00  0.00     0.114 C 
BRANCH  34  35
HETATM   35  C   UNK     0       5.365   1.567  23.613  0.00  0.00     0.139 C 
HETATM   36  O   UNK     0       4.705   1.645  22.537  0.00  0.00    -0.650 OA
BRANCH  35  37
HETATM   37  O   UNK     0       5.062   0.515  24.468  0.00  0.00    -0.776 OA
HETATM   38  H   UNK     0       4.950  -0.429  24.135  0.00  0.00     0.167 HD
ENDBRANCH  35  37
ENDBRANCH  34  35
ENDBRANCH  33  34
ENDBRANCH   6  33
BRANCH  27  39
HETATM   39  C   UNK     0       7.945  11.199  19.047  0.00  0.00     0.051 C 
BRANCH  39  40
HETATM   40  C   UNK     0       7.159  10.943  17.841  0.00  0.00     0.114 C 
BRANCH  40  41
HETATM   41  C   UNK     0       7.678  11.194  16.515  0.00  0.00     0.139 C 
HETATM   42  O   UNK     0       8.374  12.177  16.228  0.00  0.00    -0.650 OA
BRANCH  41  43
HETATM   43  O   UNK     0       7.382  10.271  15.471  0.00  0.00    -0.776 OA
HETATM   44  H   UNK     0       6.393  10.155  15.282  0.00  0.00     0.167 HD
ENDBRANCH  41  43
ENDBRANCH  40  41
ENDBRANCH  39  40
ENDBRANCH  27  39
BRANCH  11  45
HETATM   45  C   UNK     0      -0.300   7.377  23.817  0.00  0.00     0.051 C 
BRANCH  45  46
HETATM   46  C   UNK     0      -0.408   7.636  25.275  0.00  0.00     0.114 C 
BRANCH  46  47
HETATM   47  C   UNK     0      -0.259   9.106  25.474  0.00  0.00     0.139 C 
HETATM   48  O   UNK     0       0.639   9.699  24.861  0.00  0.00    -0.650 OA
BRANCH  47  49
HETATM   49  O   UNK     0      -1.097   9.789  26.319  0.00  0.00    -0.776 OA
HETATM   50  H   UNK     0      -1.093   9.634  27.334  0.00  0.00     0.167 HD
ENDBRANCH  47  49
ENDBRANCH  46  47
ENDBRANCH  45  46
ENDBRANCH  11  45
BRANCH  18  51
HETATM   51  C   UNK     0       2.702  13.221  21.450  0.00  0.00     0.051 C 
BRANCH  51  52
HETATM   52  C   UNK     0       2.709  13.834  20.057  0.00  0.00     0.114 C 
BRANCH  52  53
HETATM   53  C   UNK     0       1.710  14.912  19.927  0.00  0.00     0.139 C 
HETATM   54  O   UNK     0       0.648  14.704  19.320  0.00  0.00    -0.650 OA
BRANCH  53  55
HETATM   55  O   UNK     0       1.965  16.145  20.476  0.00  0.00    -0.776 OA
HETATM   56  H   UNK     0       2.449  16.316  21.326  0.00  0.00     0.167 HD
ENDBRANCH  53  55
ENDBRANCH  52  53
ENDBRANCH  51  52
ENDBRANCH  18  51
TORSDOF 16
ENDMDL
MODEL 7
REMARK VINA RESULT:      -9.8      2.293      3.433
REMARK  16 active torsions:
REMARK  status: ('A' for Active; 'I' for Inactive)
REMARK    1  A    between atoms: C_6  and  C_7 
REMARK    2  A    between atoms: C_7  and  C_8 
REMARK    3  A    between atoms: C_8  and  C_9 
REMARK    4  A    between atoms: C_9  and  O_11 
REMARK    5  A    between atoms: C_16  and  C_17 
REMARK    6  A    between atoms: C_17  and  C_18 
REMARK    7  A    between atoms: C_18  and  C_19 
REMARK    8  A    between atoms: C_19  and  O_21 
REMARK    9  A    between atoms: C_28  and  C_29 
REMARK   10  A    between atoms: C_29  and  C_30 
REMARK   11  A    between atoms: C_30  and  C_31 
REMARK   12  A    between atoms: C_31  and  O_33 
REMARK   13  A    between atoms: C_42  and  C_43 
REMARK   14  A    between atoms: C_43  and  C_44 
REMARK   15  A    between atoms: C_44  and  C_45 
REMARK   16  A    between atoms: C_45  and  O_47 
ROOT
HETATM    1  C   UNK     0      -2.379   7.498  23.919  0.00  0.00     0.051 C 
HETATM    2  C   UNK     0      -1.183   6.699  23.442  0.00  0.00    -0.031 A 
HETATM    3  C   UNK     0      -0.385   6.891  22.326  0.00  0.00     0.021 A 
HETATM    4  N   UNK     0       0.551   5.913  22.278  0.00  0.00    -0.361 N 
HETATM    5  C   UNK     0       0.372   5.107  23.345  0.00  0.00     0.022 A 
HETATM    6  C   UNK     0      -0.707   5.568  24.093  0.00  0.00    -0.027 A 
HETATM    7  C   UNK     0       1.191   3.942  23.806  0.00  0.00     0.115 C 
HETATM    8  C   UNK     0       2.700   4.103  23.745  0.00  0.00     0.021 A 
HETATM    9  N   UNK     0       3.433   5.205  23.967  0.00  0.00    -0.361 N 
HETATM   10  C   UNK     0       4.724   4.908  23.710  0.00  0.00     0.022 A 
HETATM   11  C   UNK     0       4.827   3.576  23.320  0.00  0.00    -0.027 A 
HETATM   12  C   UNK     0       3.555   3.063  23.340  0.00  0.00    -0.031 A 
HETATM   13  C   UNK     0       3.181   1.639  22.992  0.00  0.00     0.051 C 
HETATM   14  C   UNK     0       5.901   5.878  23.769  0.00  0.00     0.115 C 
HETATM   15  C   UNK     0       5.784   7.048  22.806  0.00  0.00     0.021 A 
HETATM   16  N   UNK     0       4.802   7.966  22.745  0.00  0.00    -0.361 N 
HETATM   17  C   UNK     0       5.030   8.785  21.716  0.00  0.00     0.022 A 
HETATM   18  C   UNK     0       6.224   8.387  21.082  0.00  0.00    -0.027 A 
HETATM   19  C   UNK     0       6.687   7.299  21.775  0.00  0.00    -0.031 A 
HETATM   20  C   UNK     0       7.979   6.575  21.444  0.00  0.00     0.051 C 
HETATM   21  C   UNK     0       4.197   9.927  21.179  0.00  0.00     0.115 C 
HETATM   22  C   UNK     0       2.695   9.800  21.274  0.00  0.00     0.022 A 
HETATM   23  N   UNK     0       1.939   8.715  21.062  0.00  0.00    -0.361 N 
HETATM   24  C   UNK     0       0.668   9.012  21.399  0.00  0.00     0.021 A 
HETATM   25  C   UNK     0       0.602  10.323  21.829  0.00  0.00    -0.031 A 
HETATM   26  C   UNK     0      -0.607  11.122  22.271  0.00  0.00     0.051 C 
HETATM   27  C   UNK     0       1.887  10.849  21.758  0.00  0.00    -0.027 A 
HETATM   28  C   UNK     0      -0.531   8.079  21.418  0.00  0.00     0.115 C 
HETATM   29  H   UNK     0       1.306   5.777  21.470  0.00  0.00     0.165 HD
HETATM   30  H   UNK     0       3.048   6.180  24.354  0.00  0.00     0.165 HD
HETATM   31  H   UNK     0       3.954   8.069  23.472  0.00  0.00     0.165 HD
HETATM   32  H   UNK     0       2.289   7.741  20.631  0.00  0.00     0.165 HD
ENDROOT
BRANCH   6  33
HETATM   33  C   UNK     0      -1.312   5.021  25.361  0.00  0.00     0.051 C 
BRANCH  33  34
HETATM   34  C   UNK     0      -0.484   5.413  26.562  0.00  0.00     0.114 C 
BRANCH  34  35
HETATM   35  C   UNK     0       0.053   4.159  27.163  0.00  0.00     0.139 C 
HETATM   36  O   UNK     0      -0.374   3.033  26.774  0.00  0.00    -0.650 OA
BRANCH  35  37
HETATM   37  O   UNK     0       1.027   4.160  28.154  0.00  0.00    -0.776 OA
HETATM   38  H   UNK     0       1.628   4.953  28.311  0.00  0.00     0.167 HD
ENDBRANCH  35  37
ENDBRANCH  34  35
ENDBRANCH  33  34
ENDBRANCH   6  33
BRANCH  27  39
HETATM   39  C   UNK     0       2.201  12.268  22.075  0.00  0.00     0.051 C 
BRANCH  39  40
HETATM   40  C   UNK     0       2.227  13.236  20.978  0.00  0.00     0.114 C 
BRANCH  40  41
HETATM   41  C   UNK     0       3.377  14.071  20.715  0.00  0.00     0.139 C 
HETATM   42  O   UNK     0       4.544  13.713  20.922  0.00  0.00    -0.650 OA
BRANCH  41  43
HETATM   43  O   UNK     0       3.175  15.379  20.188  0.00  0.00    -0.776 OA
HETATM   44  H   UNK     0       2.202  15.644  20.086  0.00  0.00     0.167 HD
ENDBRANCH  41  43
ENDBRANCH  40  41
ENDBRANCH  39  40
ENDBRANCH  27  39
BRANCH  11  45
HETATM   45  C   UNK     0       6.059   2.797  22.943  0.00  0.00     0.051 C 
BRANCH  45  46
HETATM   46  C   UNK     0       6.712   2.107  24.084  0.00  0.00     0.114 C 
BRANCH  46  47
HETATM   47  C   UNK     0       6.459   0.646  23.920  0.00  0.00     0.139 C 
HETATM   48  O   UNK     0       6.225   0.210  22.785  0.00  0.00    -0.650 OA
BRANCH  47  49
HETATM   49  O   UNK     0       6.483  -0.197  25.003  0.00  0.00    -0.776 OA
HETATM   50  H   UNK     0       7.049  -1.053  25.014  0.00  0.00     0.167 HD
ENDBRANCH  47  49
ENDBRANCH  46  47
ENDBRANCH  45  46
ENDBRANCH  11  45
BRANCH  18  51
HETATM   51  C   UNK     0       6.898   9.023  19.893  0.00  0.00     0.051 C 
BRANCH  51  52
HETATM   52  C   UNK     0       7.777  10.135  20.446  0.00  0.00     0.114 C 
BRANCH  52  53
HETATM   53  C   UNK     0       7.363  11.461  19.949  0.00  0.00     0.139 C 
HETATM   54  O   UNK     0       6.552  11.548  19.013  0.00  0.00    -0.650 OA
BRANCH  53  55
HETATM   55  O   UNK     0       7.882  12.595  20.524  0.00  0.00    -0.776 OA
HETATM   56  H   UNK     0       8.826  12.729  20.802  0.00  0.00     0.167 HD
ENDBRANCH  53  55
ENDBRANCH  52  53
ENDBRANCH  51  52
ENDBRANCH  18  51
TORSDOF 16
ENDMDL
MODEL 8
REMARK VINA RESULT:      -9.8      2.610      4.695
REMARK  16 active torsions:
REMARK  status: ('A' for Active; 'I' for Inactive)
REMARK    1  A    between atoms: C_6  and  C_7 
REMARK    2  A    between atoms: C_7  and  C_8 
REMARK    3  A    between atoms: C_8  and  C_9 
REMARK    4  A    between atoms: C_9  and  O_11 
REMARK    5  A    between atoms: C_16  and  C_17 
REMARK    6  A    between atoms: C_17  and  C_18 
REMARK    7  A    between atoms: C_18  and  C_19 
REMARK    8  A    between atoms: C_19  and  O_21 
REMARK    9  A    between atoms: C_28  and  C_29 
REMARK   10  A    between atoms: C_29  and  C_30 
REMARK   11  A    between atoms: C_30  and  C_31 
REMARK   12  A    between atoms: C_31  and  O_33 
REMARK   13  A    between atoms: C_42  and  C_43 
REMARK   14  A    between atoms: C_43  and  C_44 
REMARK   15  A    between atoms: C_44  and  C_45 
REMARK   16  A    between atoms: C_45  and  O_47 
ROOT
HETATM    1  C   UNK     0       0.138   9.913  22.512  0.00  0.00     0.051 C 
HETATM    2  C   UNK     0       1.022   8.693  22.349  0.00  0.00    -0.031 A 
HETATM    3  C   UNK     0       1.960   8.411  21.369  0.00  0.00     0.021 A 
HETATM    4  N   UNK     0       2.490   7.188  21.605  0.00  0.00    -0.361 N 
HETATM    5  C   UNK     0       1.917   6.687  22.719  0.00  0.00     0.022 A 
HETATM    6  C   UNK     0       0.991   7.602  23.209  0.00  0.00    -0.027 A 
HETATM    7  C   UNK     0       2.214   5.418  23.455  0.00  0.00     0.115 C 
HETATM    8  C   UNK     0       3.679   5.060  23.630  0.00  0.00     0.021 A 
HETATM    9  N   UNK     0       4.722   5.879  23.833  0.00  0.00    -0.361 N 
HETATM   10  C   UNK     0       5.847   5.133  23.838  0.00  0.00     0.022 A 
HETATM   11  C   UNK     0       5.519   3.795  23.643  0.00  0.00    -0.027 A 
HETATM   12  C   UNK     0       4.155   3.742  23.511  0.00  0.00    -0.031 A 
HETATM   13  C   UNK     0       3.347   2.483  23.287  0.00  0.00     0.051 C 
HETATM   14  C   UNK     0       7.275   5.655  23.974  0.00  0.00     0.115 C 
HETATM   15  C   UNK     0       7.689   6.609  22.865  0.00  0.00     0.021 A 
HETATM   16  N   UNK     0       7.107   7.774  22.523  0.00  0.00    -0.361 N 
HETATM   17  C   UNK     0       7.727   8.276  21.453  0.00  0.00     0.022 A 
HETATM   18  C   UNK     0       8.769   7.402  21.085  0.00  0.00    -0.027 A 
HETATM   19  C   UNK     0       8.735   6.362  21.978  0.00  0.00    -0.031 A 
HETATM   20  C   UNK     0       9.719   5.206  21.965  0.00  0.00     0.051 C 
HETATM   21  C   UNK     0       7.418   9.515  20.643  0.00  0.00     0.115 C 
HETATM   22  C   UNK     0       5.967   9.909  20.497  0.00  0.00     0.022 A 
HETATM   23  N   UNK     0       4.907   9.114  20.298  0.00  0.00    -0.361 N 
HETATM   24  C   UNK     0       3.792   9.868  20.375  0.00  0.00     0.021 A 
HETATM   25  C   UNK     0       4.142  11.182  20.618  0.00  0.00    -0.031 A 
HETATM   26  C   UNK     0       3.250  12.399  20.745  0.00  0.00     0.051 C 
HETATM   27  C   UNK     0       5.529  11.233  20.700  0.00  0.00    -0.027 A 
HETATM   28  C   UNK     0       2.348   9.401  20.307  0.00  0.00     0.115 C 
HETATM   29  H   UNK     0       3.238   6.669  20.960  0.00  0.00     0.165 HD
HETATM   30  H   UNK     0       4.664   6.979  24.023  0.00  0.00     0.165 HD
HETATM   31  H   UNK     0       6.272   8.277  23.077  0.00  0.00     0.165 HD
HETATM   32  H   UNK     0       4.939   8.019  20.059  0.00  0.00     0.165 HD
ENDROOT
BRANCH   6  33
HETATM   33  C   UNK     0       0.089   7.519  24.414  0.00  0.00     0.051 C 
BRANCH  33  34
HETATM   34  C   UNK     0       0.807   7.999  25.653  0.00  0.00     0.114 C 
BRANCH  34  35
HETATM   35  C   UNK     0       0.257   7.238  26.811  0.00  0.00     0.139 C 
HETATM   36  O   UNK     0       0.034   5.996  26.709  0.00  0.00    -0.650 OA
BRANCH  35  37
HETATM   37  O   UNK     0      -0.029   7.835  28.033  0.00  0.00    -0.776 OA
HETATM   38  H   UNK     0      -0.266   7.295  28.850  0.00  0.00     0.167 HD
ENDBRANCH  35  37
ENDBRANCH  34  35
ENDBRANCH  33  34
ENDBRANCH   6  33
BRANCH  27  39
HETATM   39  C   UNK     0       6.284  12.502  20.885  0.00  0.00     0.051 C 
BRANCH  39  40
HETATM   40  C   UNK     0       7.709  12.516  20.557  0.00  0.00     0.114 C 
BRANCH  40  41
HETATM   41  C   UNK     0       8.722  12.843  21.536  0.00  0.00     0.139 C 
HETATM   42  O   UNK     0       9.154  12.035  22.369  0.00  0.00    -0.650 OA
BRANCH  41  43
HETATM   43  O   UNK     0       9.262  14.160  21.558  0.00  0.00    -0.776 OA
HETATM   44  H   UNK     0       9.775  14.417  20.723  0.00  0.00     0.167 HD
ENDBRANCH  41  43
ENDBRANCH  40  41
ENDBRANCH  39  40
ENDBRANCH  27  39
BRANCH  11  45
HETATM   45  C   UNK     0       6.432   2.600  23.581  0.00  0.00     0.051 C 
BRANCH  45  46
HETATM   46  C   UNK     0       6.321   1.691  24.750  0.00  0.00     0.114 C 
BRANCH  46  47
HETATM   47  C   UNK     0       6.328   0.295  24.226  0.00  0.00     0.139 C 
HETATM   48  O   UNK     0       5.996   0.103  23.048  0.00  0.00    -0.650 OA
BRANCH  47  49
HETATM   49  O   UNK     0       6.692  -0.755  25.030  0.00  0.00    -0.776 OA
HETATM   50  H   UNK     0       7.622  -0.815  25.461  0.00  0.00     0.167 HD
ENDBRANCH  47  49
ENDBRANCH  46  47
ENDBRANCH  45  46
ENDBRANCH  11  45
BRANCH  18  51
HETATM   51  C   UNK     0       9.756   7.559  19.958  0.00  0.00     0.051 C 
BRANCH  51  52
HETATM   52  C   UNK     0      10.496   8.862  20.218  0.00  0.00     0.114 C 
BRANCH  52  53
HETATM   53  C   UNK     0      11.176   8.856  21.528  0.00  0.00     0.139 C 
HETATM   54  O   UNK     0      11.967   7.943  21.813  0.00  0.00    -0.650 OA
BRANCH  53  55
HETATM   55  O   UNK     0      10.925   9.863  22.428  0.00  0.00    -0.776 OA
HETATM   56  H   UNK     0      11.464  10.072  23.236  0.00  0.00     0.167 HD
ENDBRANCH  53  55
ENDBRANCH  52  53
ENDBRANCH  51  52
ENDBRANCH  18  51
TORSDOF 16
ENDMDL
MODEL 9
REMARK VINA RESULT:      -9.8      2.198      9.099
REMARK  16 active torsions:
REMARK  status: ('A' for Active; 'I' for Inactive)
REMARK    1  A    between atoms: C_6  and  C_7 
REMARK    2  A    between atoms: C_7  and  C_8 
REMARK    3  A    between atoms: C_8  and  C_9 
REMARK    4  A    between atoms: C_9  and  O_11 
REMARK    5  A    between atoms: C_16  and  C_17 
REMARK    6  A    between atoms: C_17  and  C_18 
REMARK    7  A    between atoms: C_18  and  C_19 
REMARK    8  A    between atoms: C_19  and  O_21 
REMARK    9  A    between atoms: C_28  and  C_29 
REMARK   10  A    between atoms: C_29  and  C_30 
REMARK   11  A    between atoms: C_30  and  C_31 
REMARK   12  A    between atoms: C_31  and  O_33 
REMARK   13  A    between atoms: C_42  and  C_43 
REMARK   14  A    between atoms: C_43  and  C_44 
REMARK   15  A    between atoms: C_44  and  C_45 
REMARK   16  A    between atoms: C_45  and  O_47 
ROOT
HETATM    1  C   UNK     0       5.001  12.480  19.954  0.00  0.00     0.051 C 
HETATM    2  C   UNK     0       4.190  11.212  20.133  0.00  0.00    -0.031 A 
HETATM    3  C   UNK     0       4.524   9.903  19.826  0.00  0.00     0.021 A 
HETATM    4  N   UNK     0       3.478   9.098  20.128  0.00  0.00    -0.361 N 
HETATM    5  C   UNK     0       2.487   9.865  20.628  0.00  0.00     0.022 A 
HETATM    6  C   UNK     0       2.898  11.194  20.643  0.00  0.00    -0.027 A 
HETATM    7  C   UNK     0       1.163   9.459  21.196  0.00  0.00     0.115 C 
HETATM    8  C   UNK     0       1.157   8.247  22.111  0.00  0.00     0.021 A 
HETATM    9  N   UNK     0       2.092   7.860  22.993  0.00  0.00    -0.361 N 
HETATM   10  C   UNK     0       1.709   6.677  23.517  0.00  0.00     0.022 A 
HETATM   11  C   UNK     0       0.490   6.295  22.966  0.00  0.00    -0.027 A 
HETATM   12  C   UNK     0       0.136   7.280  22.079  0.00  0.00    -0.031 A 
HETATM   13  C   UNK     0      -1.126   7.293  21.245  0.00  0.00     0.051 C 
HETATM   14  C   UNK     0       2.500   5.836  24.516  0.00  0.00     0.115 C 
HETATM   15  C   UNK     0       3.856   5.381  24.000  0.00  0.00     0.021 A 
HETATM   16  N   UNK     0       4.874   6.153  23.574  0.00  0.00    -0.361 N 
HETATM   17  C   UNK     0       5.863   5.371  23.136  0.00  0.00     0.022 A 
HETATM   18  C   UNK     0       5.475   4.025  23.292  0.00  0.00    -0.027 A 
HETATM   19  C   UNK     0       4.216   4.045  23.835  0.00  0.00    -0.031 A 
HETATM   20  C   UNK     0       3.435   2.797  24.202  0.00  0.00     0.051 C 
HETATM   21  C   UNK     0       7.183   5.740  22.497  0.00  0.00     0.115 C 
HETATM   22  C   UNK     0       7.213   6.968  21.619  0.00  0.00     0.022 A 
HETATM   23  N   UNK     0       6.295   7.380  20.735  0.00  0.00    -0.361 N 
HETATM   24  C   UNK     0       6.658   8.597  20.283  0.00  0.00     0.021 A 
HETATM   25  C   UNK     0       7.844   8.974  20.883  0.00  0.00    -0.031 A 
HETATM   26  C   UNK     0       8.664  10.230  20.669  0.00  0.00     0.051 C 
HETATM   27  C   UNK     0       8.220   7.947  21.742  0.00  0.00    -0.027 A 
HETATM   28  C   UNK     0       5.889   9.506  19.339  0.00  0.00     0.115 C 
HETATM   29  H   UNK     0       3.432   7.999  19.948  0.00  0.00     0.165 HD
HETATM   30  H   UNK     0       2.998   8.445  23.284  0.00  0.00     0.165 HD
HETATM   31  H   UNK     0       4.915   7.272  23.628  0.00  0.00     0.165 HD
HETATM   32  H   UNK     0       5.403   6.796  20.390  0.00  0.00     0.165 HD
ENDROOT
BRANCH   6  33
HETATM   33  C   UNK     0       2.165  12.431  21.096  0.00  0.00     0.051 C 
BRANCH  33  34
HETATM   34  C   UNK     0       2.266  12.594  22.594  0.00  0.00     0.114 C 
BRANCH  34  35
HETATM   35  C   UNK     0       2.272  14.056  22.885  0.00  0.00     0.139 C 
HETATM   36  O   UNK     0       2.036  14.890  21.962  0.00  0.00    -0.650 OA
BRANCH  35  37
HETATM   37  O   UNK     0       2.527  14.568  24.151  0.00  0.00    -0.776 OA
HETATM   38  H   UNK     0       2.216  14.102  24.988  0.00  0.00     0.167 HD
ENDBRANCH  35  37
ENDBRANCH  34  35
ENDBRANCH  33  34
ENDBRANCH   6  33
BRANCH  27  39
HETATM   39  C   UNK     0       9.491   7.962  22.515  0.00  0.00     0.051 C 
BRANCH  39  40
HETATM   40  C   UNK     0      10.657   7.286  21.946  0.00  0.00     0.114 C 
BRANCH  40  41
HETATM   41  C   UNK     0      10.560   6.425  20.789  0.00  0.00     0.139 C 
HETATM   42  O   UNK     0      10.827   6.795  19.637  0.00  0.00    -0.650 OA
BRANCH  41  43
HETATM   43  O   UNK     0      10.137   5.077  20.964  0.00  0.00    -0.776 OA
HETATM   44  H   UNK     0       9.136   4.963  21.074  0.00  0.00     0.167 HD
ENDBRANCH  41  43
ENDBRANCH  40  41
ENDBRANCH  39  40
ENDBRANCH  27  39
BRANCH  11  45
HETATM   45  C   UNK     0      -0.327   5.063  23.247  0.00  0.00     0.051 C 
BRANCH  45  46
HETATM   46  C   UNK     0      -1.412   5.269  24.241  0.00  0.00     0.114 C 
BRANCH  46  47
HETATM   47  C   UNK     0      -0.991   4.594  25.501  0.00  0.00     0.139 C 
HETATM   48  O   UNK     0      -0.497   5.282  26.405  0.00  0.00    -0.650 OA
BRANCH  47  49
HETATM   49  O   UNK     0      -1.144   3.240  25.658  0.00  0.00    -0.776 OA
HETATM   50  H   UNK     0      -1.995   2.749  25.359  0.00  0.00     0.167 HD
ENDBRANCH  47  49
ENDBRANCH  46  47
ENDBRANCH  45  46
ENDBRANCH  11  45
BRANCH  18  51
HETATM   51  C   UNK     0       6.269   2.788  22.962  0.00  0.00     0.051 C 
BRANCH  51  52
HETATM   52  C   UNK     0       6.551   2.096  24.287  0.00  0.00     0.114 C 
BRANCH  52  53
HETATM   53  C   UNK     0       6.394   0.632  24.187  0.00  0.00     0.139 C 
HETATM   54  O   UNK     0       5.957   0.124  23.142  0.00  0.00    -0.650 OA
BRANCH  53  55
HETATM   55  O   UNK     0       6.731  -0.162  25.256  0.00  0.00    -0.776 OA
HETATM   56  H   UNK     0       6.216  -0.255  26.100  0.00  0.00     0.167 HD
ENDBRANCH  53  55
ENDBRANCH  52  53
ENDBRANCH  51  52
ENDBRANCH  18  51
TORSDOF 16
ENDMDL
MODEL 10
REMARK VINA RESULT:      -9.6      2.213      7.088
REMARK  16 active torsions:
REMARK  status: ('A' for Active; 'I' for Inactive)
REMARK    1  A    between atoms: C_6  and  C_7 
REMARK    2  A    between atoms: C_7  and  C_8 
REMARK    3  A    between atoms: C_8  and  C_9 
REMARK    4  A    between atoms: C_9  and  O_11 
REMARK    5  A    between atoms: C_16  and  C_17 
REMARK    6  A    between atoms: C_17  and  C_18 
REMARK    7  A    between atoms: C_18  and  C_19 
REMARK    8  A    between atoms: C_19  and  O_21 
REMARK    9  A    between atoms: C_28  and  C_29 
REMARK   10  A    between atoms: C_29  and  C_30 
REMARK   11  A    between atoms: C_30  and  C_31 
REMARK   12  A    between atoms: C_31  and  O_33 
REMARK   13  A    between atoms: C_42  and  C_43 
REMARK   14  A    between atoms: C_43  and  C_44 
REMARK   15  A    between atoms: C_44  and  C_45 
REMARK   16  A    between atoms: C_45  and  O_47 
ROOT
HETATM    1  C   UNK     0       8.521   4.214  22.587  0.00  0.00     0.051 C 
HETATM    2  C   UNK     0       7.177   4.685  23.106  0.00  0.00    -0.031 A 
HETATM    3  C   UNK     0       6.812   5.927  23.601  0.00  0.00     0.021 A 
HETATM    4  N   UNK     0       5.512   5.886  23.979  0.00  0.00    -0.361 N 
HETATM    5  C   UNK     0       5.039   4.647  23.728  0.00  0.00     0.022 A 
HETATM    6  C   UNK     0       6.055   3.870  23.183  0.00  0.00    -0.027 A 
HETATM    7  C   UNK     0       3.649   4.111  23.874  0.00  0.00     0.115 C 
HETATM    8  C   UNK     0       2.518   5.013  23.411  0.00  0.00     0.021 A 
HETATM    9  N   UNK     0       2.499   5.863  22.373  0.00  0.00    -0.361 N 
HETATM   10  C   UNK     0       1.321   6.524  22.395  0.00  0.00     0.022 A 
HETATM   11  C   UNK     0       0.558   6.080  23.471  0.00  0.00    -0.027 A 
HETATM   12  C   UNK     0       1.306   5.128  24.115  0.00  0.00    -0.031 A 
HETATM   13  C   UNK     0       0.874   4.362  25.345  0.00  0.00     0.051 C 
HETATM   14  C   UNK     0       0.892   7.632  21.438  0.00  0.00     0.115 C 
HETATM   15  C   UNK     0       1.793   8.857  21.471  0.00  0.00     0.021 A 
HETATM   16  N   UNK     0       3.115   8.911  21.222  0.00  0.00    -0.361 N 
HETATM   17  C   UNK     0       3.548  10.157  21.424  0.00  0.00     0.022 A 
HETATM   18  C   UNK     0       2.455  10.955  21.815  0.00  0.00    -0.027 A 
HETATM   19  C   UNK     0       1.361  10.129  21.839  0.00  0.00    -0.031 A 
HETATM   20  C   UNK     0      -0.043  10.597  22.176  0.00  0.00     0.051 C 
HETATM   21  C   UNK     0       4.949  10.723  21.352  0.00  0.00     0.115 C 
HETATM   22  C   UNK     0       6.087   9.822  21.768  0.00  0.00     0.022 A 
HETATM   23  N   UNK     0       6.133   8.962  22.794  0.00  0.00    -0.361 N 
HETATM   24  C   UNK     0       7.281   8.260  22.707  0.00  0.00     0.021 A 
HETATM   25  C   UNK     0       7.997   8.685  21.604  0.00  0.00    -0.031 A 
HETATM   26  C   UNK     0       9.356   8.230  21.116  0.00  0.00     0.051 C 
HETATM   27  C   UNK     0       7.253   9.684  20.987  0.00  0.00    -0.027 A 
HETATM   28  C   UNK     0       7.737   7.111  23.589  0.00  0.00     0.115 C 
HETATM   29  H   UNK     0       4.949   6.720  24.458  0.00  0.00     0.165 HD
HETATM   30  H   UNK     0       3.293   5.964  21.594  0.00  0.00     0.165 HD
HETATM   31  H   UNK     0       3.747   8.063  20.849  0.00  0.00     0.165 HD
HETATM   32  H   UNK     0       5.375   8.873  23.615  0.00  0.00     0.165 HD
ENDROOT
BRANCH   6  33
HETATM   33  C   UNK     0       6.043   2.429  22.739  0.00  0.00     0.051 C 
BRANCH  33  34
HETATM   34  C   UNK     0       6.351   1.509  23.897  0.00  0.00     0.114 C 
BRANCH  34  35
HETATM   35  C   UNK     0       5.517   0.285  23.729  0.00  0.00     0.139 C 
HETATM   36  O   UNK     0       4.550   0.279  22.912  0.00  0.00    -0.650 OA
BRANCH  35  37
HETATM   37  O   UNK     0       5.752  -0.885  24.441  0.00  0.00    -0.776 OA
HETATM   38  H   UNK     0       5.762  -1.789  23.996  0.00  0.00     0.167 HD
ENDBRANCH  35  37
ENDBRANCH  34  35
ENDBRANCH  33  34
ENDBRANCH   6  33
BRANCH  27  39
HETATM   39  C   UNK     0       7.737  10.438  19.798  0.00  0.00     0.051 C 
BRANCH  39  40
HETATM   40  C   UNK     0       7.181  10.099  18.488  0.00  0.00     0.114 C 
BRANCH  40  41
HETATM   41  C   UNK     0       7.440  10.896  17.311  0.00  0.00     0.139 C 
HETATM   42  O   UNK     0       7.707  10.413  16.203  0.00  0.00    -0.650 OA
BRANCH  41  43
HETATM   43  O   UNK     0       7.391  12.316  17.414  0.00  0.00    -0.776 OA
HETATM   44  H   UNK     0       8.049  12.711  18.074  0.00  0.00     0.167 HD
ENDBRANCH  41  43
ENDBRANCH  40  41
ENDBRANCH  39  40
ENDBRANCH  27  39
BRANCH  11  45
HETATM   45  C   UNK     0      -0.819   6.516  23.892  0.00  0.00     0.051 C 
BRANCH  45  46
HETATM   46  C   UNK     0      -1.903   6.061  22.984  0.00  0.00     0.114 C 
BRANCH  46  47
HETATM   47  C   UNK     0      -2.303   4.693  23.425  0.00  0.00     0.139 C 
HETATM   48  O   UNK     0      -2.302   3.778  22.589  0.00  0.00    -0.650 OA
BRANCH  47  49
HETATM   49  O   UNK     0      -2.666   4.452  24.726  0.00  0.00    -0.776 OA
HETATM   50  H   UNK     0      -3.499   4.879  25.147  0.00  0.00     0.167 HD
ENDBRANCH  47  49
ENDBRANCH  46  47
ENDBRANCH  45  46
ENDBRANCH  11  45
BRANCH  18  51
HETATM   51  C   UNK     0       2.448  12.429  22.127  0.00  0.00     0.051 C 
BRANCH  51  52
HETATM   52  C   UNK     0       2.301  13.147  20.793  0.00  0.00     0.114 C 
BRANCH  52  53
HETATM   53  C   UNK     0       3.159  14.345  20.716  0.00  0.00     0.139 C 
HETATM   54  O   UNK     0       2.682  15.427  20.338  0.00  0.00    -0.650 OA
BRANCH  53  55
HETATM   55  O   UNK     0       4.485  14.255  21.061  0.00  0.00    -0.776 OA
HETATM   56  H   UNK     0       4.848  14.219  21.984  0.00  0.00     0.167 HD
ENDBRANCH  53  55
ENDBRANCH  52  53
ENDBRANCH  51  52
ENDBRANCH  18  51
TORSDOF 16
ENDMDL
MODEL 11
REMARK VINA RESULT:      -9.6      2.963      8.312
REMARK  16 active torsions:
REMARK  status: ('A' for Active; 'I' for Inactive)
REMARK    1  A    between atoms: C_6  and  C_7 
REMARK    2  A    between atoms: C_7  and  C_8 
REMARK    3  A    between atoms: C_8  and  C_9 
REMARK    4  A    between atoms: C_9  and  O_11 
REMARK    5  A    between atoms: C_16  and  C_17 
REMARK    6  A    between atoms: C_17  and  C_18 
REMARK    7  A    between atoms: C_18  and  C_19 
REMARK    8  A    between atoms: C_19  and  O_21 
REMARK    9  A    between atoms: C_28  and  C_29 
REMARK   10  A    between atoms: C_29  and  C_30 
REMARK   11  A    between atoms: C_30  and  C_31 
REMARK   12  A    between atoms: C_31  and  O_33 
REMARK   13  A    between atoms: C_42  and  C_43 
REMARK   14  A    between atoms: C_43  and  C_44 
REMARK   15  A    between atoms: C_44  and  C_45 
REMARK   16  A    between atoms: C_45  and  O_47 
ROOT
HETATM    1  C   UNK     0       2.708  11.552  22.270  0.00  0.00     0.051 C 
HETATM    2  C   UNK     0       3.325  10.319  22.899  0.00  0.00    -0.031 A 
HETATM    3  C   UNK     0       2.941   9.627  24.037  0.00  0.00     0.021 A 
HETATM    4  N   UNK     0       3.803   8.603  24.242  0.00  0.00    -0.361 N 
HETATM    5  C   UNK     0       4.722   8.622  23.255  0.00  0.00     0.022 A 
HETATM    6  C   UNK     0       4.454   9.685  22.399  0.00  0.00    -0.027 A 
HETATM    7  C   UNK     0       5.831   7.658  22.967  0.00  0.00     0.115 C 
HETATM    8  C   UNK     0       5.502   6.182  23.104  0.00  0.00     0.021 A 
HETATM    9  N   UNK     0       4.354   5.550  22.815  0.00  0.00    -0.361 N 
HETATM   10  C   UNK     0       4.484   4.257  23.180  0.00  0.00     0.022 A 
HETATM   11  C   UNK     0       5.754   4.048  23.710  0.00  0.00    -0.027 A 
HETATM   12  C   UNK     0       6.401   5.256  23.665  0.00  0.00    -0.031 A 
HETATM   13  C   UNK     0       7.816   5.508  24.134  0.00  0.00     0.051 C 
HETATM   14  C   UNK     0       3.403   3.183  23.094  0.00  0.00     0.115 C 
HETATM   15  C   UNK     0       2.165   3.487  23.923  0.00  0.00     0.021 A 
HETATM   16  N   UNK     0       1.357   4.559  23.829  0.00  0.00    -0.361 N 
HETATM   17  C   UNK     0       0.423   4.490  24.780  0.00  0.00     0.022 A 
HETATM   18  C   UNK     0       0.627   3.310  25.524  0.00  0.00    -0.027 A 
HETATM   19  C   UNK     0       1.721   2.691  24.976  0.00  0.00    -0.031 A 
HETATM   20  C   UNK     0       2.266   1.360  25.459  0.00  0.00     0.051 C 
HETATM   21  C   UNK     0      -0.668   5.470  25.145  0.00  0.00     0.115 C 
HETATM   22  C   UNK     0      -0.371   6.941  24.972  0.00  0.00     0.022 A 
HETATM   23  N   UNK     0       0.764   7.596  25.247  0.00  0.00    -0.361 N 
HETATM   24  C   UNK     0       0.640   8.864  24.804  0.00  0.00     0.021 A 
HETATM   25  C   UNK     0      -0.609   9.031  24.238  0.00  0.00    -0.031 A 
HETATM   26  C   UNK     0      -1.227  10.280  23.643  0.00  0.00     0.051 C 
HETATM   27  C   UNK     0      -1.275   7.815  24.334  0.00  0.00    -0.027 A 
HETATM   28  C   UNK     0       1.694   9.957  24.808  0.00  0.00     0.115 C 
HETATM   29  H   UNK     0       3.779   7.897  25.105  0.00  0.00     0.165 HD
HETATM   30  H   UNK     0       3.468   6.003  22.307  0.00  0.00     0.165 HD
HETATM   31  H   UNK     0       1.416   5.359  23.045  0.00  0.00     0.165 HD
HETATM   32  H   UNK     0       1.649   7.182  25.797  0.00  0.00     0.165 HD
ENDROOT
BRANCH   6  33
HETATM   33  C   UNK     0       5.182  10.139  21.159  0.00  0.00     0.051 C 
BRANCH  33  34
HETATM   34  C   UNK     0       4.629   9.453  19.932  0.00  0.00     0.114 C 
BRANCH  34  35
HETATM   35  C   UNK     0       5.768   9.228  18.996  0.00  0.00     0.139 C 
HETATM   36  O   UNK     0       5.885   9.936  17.954  0.00  0.00    -0.650 OA
BRANCH  35  37
HETATM   37  O   UNK     0       6.736   8.255  19.213  0.00  0.00    -0.776 OA
HETATM   38  H   UNK     0       6.701   7.356  18.760  0.00  0.00     0.167 HD
ENDBRANCH  35  37
ENDBRANCH  34  35
ENDBRANCH  33  34
ENDBRANCH   6  33
BRANCH  27  39
HETATM   39  C   UNK     0      -2.683   7.624  23.892  0.00  0.00     0.051 C 
BRANCH  39  40
HETATM   40  C   UNK     0      -2.924   7.089  22.553  0.00  0.00     0.114 C 
BRANCH  40  41
HETATM   41  C   UNK     0      -2.221   7.581  21.389  0.00  0.00     0.139 C 
HETATM   42  O   UNK     0      -2.628   8.518  20.690  0.00  0.00    -0.650 OA
BRANCH  41  43
HETATM   43  O   UNK     0      -0.994   6.965  21.012  0.00  0.00    -0.776 OA
HETATM   44  H   UNK     0      -0.547   7.382  20.204  0.00  0.00     0.167 HD
ENDBRANCH  41  43
ENDBRANCH  40  41
ENDBRANCH  39  40
ENDBRANCH  27  39
BRANCH  11  45
HETATM   45  C   UNK     0       6.355   2.774  24.240  0.00  0.00     0.051 C 
BRANCH  45  46
HETATM   46  C   UNK     0       6.386   1.663  23.255  0.00  0.00     0.114 C 
BRANCH  46  47
HETATM   47  C   UNK     0       6.165   0.396  24.010  0.00  0.00     0.139 C 
HETATM   48  O   UNK     0       5.553  -0.526  23.454  0.00  0.00    -0.650 OA
BRANCH  47  49
HETATM   49  O   UNK     0       6.627   0.254  25.294  0.00  0.00    -0.776 OA
HETATM   50  H   UNK     0       6.771  -0.667  25.723  0.00  0.00     0.167 HD
ENDBRANCH  47  49
ENDBRANCH  46  47
ENDBRANCH  45  46
ENDBRANCH  11  45
BRANCH  18  51
HETATM   51  C   UNK     0      -0.188   2.792  26.680  0.00  0.00     0.051 C 
BRANCH  51  52
HETATM   52  C   UNK     0       0.238   3.598  27.898  0.00  0.00     0.114 C 
BRANCH  52  53
HETATM   53  C   UNK     0       1.225   2.872  28.720  0.00  0.00     0.139 C 
HETATM   54  O   UNK     0       2.098   3.499  29.342  0.00  0.00    -0.650 OA
BRANCH  53  55
HETATM   55  O   UNK     0       1.174   1.501  28.791  0.00  0.00    -0.776 OA
HETATM   56  H   UNK     0       0.349   0.948  28.803  0.00  0.00     0.167 HD
ENDBRANCH  53  55
ENDBRANCH  52  53
ENDBRANCH  51  52
ENDBRANCH  18  51
TORSDOF 16
ENDMDL
MODEL 12
REMARK VINA RESULT:      -9.5      2.572      7.304
REMARK  16 active torsions:
REMARK  status: ('A' for Active; 'I' for Inactive)
REMARK    1  A    between atoms: C_6  and  C_7 
REMARK    2  A    between atoms: C_7  and  C_8 
REMARK    3  A    between atoms: C_8  and  C_9 
REMARK    4  A    between atoms: C_9  and  O_11 
REMARK    5  A    between atoms: C_16  and  C_17 
REMARK    6  A    between atoms: C_17  and  C_18 
REMARK    7  A    between atoms: C_18  and  C_19 
REMARK    8  A    between atoms: C_19  and  O_21 
REMARK    9  A    between atoms: C_28  and  C_29 
REMARK   10  A    between atoms: C_29  and  C_30 
REMARK   11  A    between atoms: C_30  and  C_31 
REMARK   12  A    between atoms: C_31  and  O_33 
REMARK   13  A    between atoms: C_42  and  C_43 
REMARK   14  A    between atoms: C_43  and  C_44 
REMARK   15  A    between atoms: C_44  and  C_45 
REMARK   16  A    between atoms: C_45  and  O_47 
ROOT
HETATM    1  C   UNK     0       0.781   5.079  23.260  0.00  0.00     0.051 C 
HETATM    2  C   UNK     0       1.247   6.510  23.087  0.00  0.00    -0.031 A 
HETATM    3  C   UNK     0       2.338   7.154  23.649  0.00  0.00     0.021 A 
HETATM    4  N   UNK     0       2.348   8.445  23.237  0.00  0.00    -0.361 N 
HETATM    5  C   UNK     0       1.293   8.634  22.419  0.00  0.00     0.022 A 
HETATM    6  C   UNK     0       0.580   7.445  22.305  0.00  0.00    -0.027 A 
HETATM    7  C   UNK     0       0.906   9.846  21.629  0.00  0.00     0.115 C 
HETATM    8  C   UNK     0       2.027  10.586  20.922  0.00  0.00     0.021 A 
HETATM    9  N   UNK     0       3.127  10.080  20.342  0.00  0.00    -0.361 N 
HETATM   10  C   UNK     0       3.891  11.111  19.922  0.00  0.00     0.022 A 
HETATM   11  C   UNK     0       3.261  12.313  20.231  0.00  0.00    -0.027 A 
HETATM   12  C   UNK     0       2.087  11.989  20.861  0.00  0.00    -0.031 A 
HETATM   13  C   UNK     0       1.068  12.982  21.375  0.00  0.00     0.051 C 
HETATM   14  C   UNK     0       5.263  11.006  19.262  0.00  0.00     0.115 C 
HETATM   15  C   UNK     0       6.315  10.338  20.134  0.00  0.00     0.021 A 
HETATM   16  N   UNK     0       6.279   9.101  20.663  0.00  0.00    -0.361 N 
HETATM   17  C   UNK     0       7.360   8.918  21.424  0.00  0.00     0.022 A 
HETATM   18  C   UNK     0       8.144  10.088  21.380  0.00  0.00    -0.027 A 
HETATM   19  C   UNK     0       7.479  10.970  20.568  0.00  0.00    -0.031 A 
HETATM   20  C   UNK     0       7.998  12.352  20.218  0.00  0.00     0.051 C 
HETATM   21  C   UNK     0       7.754   7.740  22.286  0.00  0.00     0.115 C 
HETATM   22  C   UNK     0       6.645   6.968  22.960  0.00  0.00     0.022 A 
HETATM   23  N   UNK     0       5.536   7.444  23.542  0.00  0.00    -0.361 N 
HETATM   24  C   UNK     0       4.755   6.400  23.884  0.00  0.00     0.021 A 
HETATM   25  C   UNK     0       5.379   5.222  23.522  0.00  0.00    -0.031 A 
HETATM   26  C   UNK     0       4.918   3.795  23.732  0.00  0.00     0.051 C 
HETATM   27  C   UNK     0       6.591   5.559  22.929  0.00  0.00    -0.027 A 
HETATM   28  C   UNK     0       3.361   6.440  24.486  0.00  0.00     0.115 C 
HETATM   29  H   UNK     0       3.079   9.222  23.559  0.00  0.00     0.165 HD
HETATM   30  H   UNK     0       3.344   8.995  20.184  0.00  0.00     0.165 HD
HETATM   31  H   UNK     0       5.498   8.323  20.458  0.00  0.00     0.165 HD
HETATM   32  H   UNK     0       5.315   8.522  23.757  0.00  0.00     0.165 HD
ENDROOT
BRANCH   6  33
HETATM   33  C   UNK     0      -0.670   7.134  21.522  0.00  0.00     0.051 C 
BRANCH  33  34
HETATM   34  C   UNK     0      -1.902   7.513  22.310  0.00  0.00     0.114 C 
BRANCH  34  35
HETATM   35  C   UNK     0      -3.079   7.328  21.413  0.00  0.00     0.139 C 
HETATM   36  O   UNK     0      -3.982   8.213  21.357  0.00  0.00    -0.650 OA
BRANCH  35  37
HETATM   37  O   UNK     0      -3.241   6.205  20.610  0.00  0.00    -0.776 OA
HETATM   38  H   UNK     0      -3.880   6.193  19.832  0.00  0.00     0.167 HD
ENDBRANCH  35  37
ENDBRANCH  34  35
ENDBRANCH  33  34
ENDBRANCH   6  33
BRANCH  27  39
HETATM   39  C   UNK     0       7.580   4.546  22.472  0.00  0.00     0.051 C 
BRANCH  39  40
HETATM   40  C   UNK     0       8.924   4.578  23.048  0.00  0.00     0.114 C 
BRANCH  40  41
HETATM   41  C   UNK     0       9.245   5.374  24.212  0.00  0.00     0.139 C 
HETATM   42  O   UNK     0       8.590   5.343  25.263  0.00  0.00    -0.650 OA
BRANCH  41  43
HETATM   43  O   UNK     0      10.369   6.246  24.164  0.00  0.00    -0.776 OA
HETATM   44  H   UNK     0      10.409   6.921  24.919  0.00  0.00     0.167 HD
ENDBRANCH  41  43
ENDBRANCH  40  41
ENDBRANCH  39  40
ENDBRANCH  27  39
BRANCH  11  45
HETATM   45  C   UNK     0       3.724  13.718  19.952  0.00  0.00     0.051 C 
BRANCH  45  46
HETATM   46  C   UNK     0       4.405  14.370  21.100  0.00  0.00     0.114 C 
BRANCH  46  47
HETATM   47  C   UNK     0       5.691  14.928  20.592  0.00  0.00     0.139 C 
HETATM   48  O   UNK     0       5.822  15.096  19.371  0.00  0.00    -0.650 OA
BRANCH  47  49
HETATM   49  O   UNK     0       6.708  15.247  21.455  0.00  0.00    -0.776 OA
HETATM   50  H   UNK     0       6.800  14.804  22.377  0.00  0.00     0.167 HD
ENDBRANCH  47  49
ENDBRANCH  46  47
ENDBRANCH  45  46
ENDBRANCH  11  45
BRANCH  18  51
HETATM   51  C   UNK     0       9.464  10.345  22.058  0.00  0.00     0.051 C 
BRANCH  51  52
HETATM   52  C   UNK     0      10.508   9.576  21.263  0.00  0.00     0.114 C 
BRANCH  52  53
HETATM   53  C   UNK     0      11.252   8.622  22.109  0.00  0.00     0.139 C 
HETATM   54  O   UNK     0      11.587   7.517  21.653  0.00  0.00    -0.650 OA
BRANCH  53  55
HETATM   55  O   UNK     0      11.567   8.963  23.402  0.00  0.00    -0.776 OA
HETATM   56  H   UNK     0      10.932   9.012  24.164  0.00  0.00     0.167 HD
ENDBRANCH  53  55
ENDBRANCH  52  53
ENDBRANCH  51  52
ENDBRANCH  18  51
TORSDOF 16
ENDMDL
MODEL 13
REMARK VINA RESULT:      -9.5      2.576      7.318
REMARK  16 active torsions:
REMARK  status: ('A' for Active; 'I' for Inactive)
REMARK    1  A    between atoms: C_6  and  C_7 
REMARK    2  A    between atoms: C_7  and  C_8 
REMARK    3  A    between atoms: C_8  and  C_9 
REMARK    4  A    between atoms: C_9  and  O_11 
REMARK    5  A    between atoms: C_16  and  C_17 
REMARK    6  A    between atoms: C_17  and  C_18 
REMARK    7  A    between atoms: C_18  and  C_19 
REMARK    8  A    between atoms: C_19  and  O_21 
REMARK    9  A    between atoms: C_28  and  C_29 
REMARK   10  A    between atoms: C_29  and  C_30 
REMARK   11  A    between atoms: C_30  and  C_31 
REMARK   12  A    between atoms: C_31  and  O_33 
REMARK   13  A    between atoms: C_42  and  C_43 
REMARK   14  A    between atoms: C_43  and  C_44 
REMARK   15  A    between atoms: C_44  and  C_45 
REMARK   16  A    between atoms: C_45  and  O_47 
ROOT
HETATM    1  C   UNK     0       6.627   2.907  22.885  0.00  0.00     0.051 C 
HETATM    2  C   UNK     0       5.427   3.725  23.317  0.00  0.00    -0.031 A 
HETATM    3  C   UNK     0       5.372   5.035  23.766  0.00  0.00     0.021 A 
HETATM    4  N   UNK     0       4.089   5.343  24.071  0.00  0.00    -0.361 N 
HETATM    5  C   UNK     0       3.324   4.260  23.818  0.00  0.00     0.022 A 
HETATM    6  C   UNK     0       4.130   3.229  23.348  0.00  0.00    -0.027 A 
HETATM    7  C   UNK     0       1.838   4.105  23.897  0.00  0.00     0.115 C 
HETATM    8  C   UNK     0       1.003   5.251  23.353  0.00  0.00     0.021 A 
HETATM    9  N   UNK     0       1.255   6.042  22.298  0.00  0.00    -0.361 N 
HETATM   10  C   UNK     0       0.289   6.984  22.240  0.00  0.00     0.022 A 
HETATM   11  C   UNK     0      -0.615   6.788  23.280  0.00  0.00    -0.027 A 
HETATM   12  C   UNK     0      -0.171   5.698  23.985  0.00  0.00    -0.031 A 
HETATM   13  C   UNK     0      -0.847   5.111  25.204  0.00  0.00     0.051 C 
HETATM   14  C   UNK     0       0.209   8.132  21.239  0.00  0.00     0.115 C 
HETATM   15  C   UNK     0       1.394   9.084  21.298  0.00  0.00     0.021 A 
HETATM   16  N   UNK     0       2.695   8.788  21.123  0.00  0.00    -0.361 N 
HETATM   17  C   UNK     0       3.426   9.887  21.324  0.00  0.00     0.022 A 
HETATM   18  C   UNK     0       2.558  10.952  21.636  0.00  0.00    -0.027 A 
HETATM   19  C   UNK     0       1.288  10.437  21.615  0.00  0.00    -0.031 A 
HETATM   20  C   UNK     0       0.039  11.262  21.864  0.00  0.00     0.051 C 
HETATM   21  C   UNK     0       4.926  10.070  21.319  0.00  0.00     0.115 C 
HETATM   22  C   UNK     0       5.771   8.921  21.817  0.00  0.00     0.022 A 
HETATM   23  N   UNK     0       5.543   8.114  22.861  0.00  0.00    -0.361 N 
HETATM   24  C   UNK     0       6.473   7.138  22.853  0.00  0.00     0.021 A 
HETATM   25  C   UNK     0       7.327   7.327  21.784  0.00  0.00    -0.031 A 
HETATM   26  C   UNK     0       8.545   6.520  21.383  0.00  0.00     0.051 C 
HETATM   27  C   UNK     0       6.899   8.462  21.106  0.00  0.00    -0.027 A 
HETATM   28  C   UNK     0       6.571   5.940  23.783  0.00  0.00     0.115 C 
HETATM   29  H   UNK     0       3.738   6.310  24.501  0.00  0.00     0.165 HD
HETATM   30  H   UNK     0       2.086   5.909  21.564  0.00  0.00     0.165 HD
HETATM   31  H   UNK     0       3.104   7.794  20.803  0.00  0.00     0.165 HD
HETATM   32  H   UNK     0       4.747   8.251  23.639  0.00  0.00     0.165 HD
ENDROOT
BRANCH   6  33
HETATM   33  C   UNK     0       3.767   1.826  22.933  0.00  0.00     0.051 C 
BRANCH  33  34
HETATM   34  C   UNK     0       3.864   0.879  24.105  0.00  0.00     0.114 C 
BRANCH  34  35
HETATM   35  C   UNK     0       2.492   0.723  24.668  0.00  0.00     0.139 C 
HETATM   36  O   UNK     0       1.552   0.284  23.942  0.00  0.00    -0.650 OA
BRANCH  35  37
HETATM   37  O   UNK     0       2.181   1.039  25.984  0.00  0.00    -0.776 OA
HETATM   38  H   UNK     0       1.665   1.870  26.227  0.00  0.00     0.167 HD
ENDBRANCH  35  37
ENDBRANCH  34  35
ENDBRANCH  33  34
ENDBRANCH   6  33
BRANCH  27  39
HETATM   39  C   UNK     0       7.619   9.024  19.931  0.00  0.00     0.051 C 
BRANCH  39  40
HETATM   40  C   UNK     0       8.777   9.884  20.174  0.00  0.00     0.114 C 
BRANCH  40  41
HETATM   41  C   UNK     0       8.981  10.565  21.433  0.00  0.00     0.139 C 
HETATM   42  O   UNK     0       9.634  10.087  22.370  0.00  0.00    -0.650 OA
BRANCH  41  43
HETATM   43  O   UNK     0       8.408  11.855  21.622  0.00  0.00    -0.776 OA
HETATM   44  H   UNK     0       8.602  12.271  22.525  0.00  0.00     0.167 HD
ENDBRANCH  41  43
ENDBRANCH  40  41
ENDBRANCH  39  40
ENDBRANCH  27  39
BRANCH  11  45
HETATM   45  C   UNK     0      -1.851   7.578  23.614  0.00  0.00     0.051 C 
BRANCH  45  46
HETATM   46  C   UNK     0      -3.115   6.951  23.150  0.00  0.00     0.114 C 
BRANCH  46  47
HETATM   47  C   UNK     0      -3.322   7.371  21.734  0.00  0.00     0.139 C 
HETATM   48  O   UNK     0      -3.754   8.511  21.512  0.00  0.00    -0.650 OA
BRANCH  47  49
HETATM   49  O   UNK     0      -3.043   6.515  20.699  0.00  0.00    -0.776 OA
HETATM   50  H   UNK     0      -3.615   6.486  19.847  0.00  0.00     0.167 HD
ENDBRANCH  47  49
ENDBRANCH  46  47
ENDBRANCH  45  46
ENDBRANCH  11  45
BRANCH  18  51
HETATM   51  C   UNK     0       2.918  12.388  21.918  0.00  0.00     0.051 C 
BRANCH  51  52
HETATM   52  C   UNK     0       2.937  13.095  20.570  0.00  0.00     0.114 C 
BRANCH  52  53
HETATM   53  C   UNK     0       2.201  14.373  20.610  0.00  0.00     0.139 C 
HETATM   54  O   UNK     0       2.075  14.984  21.682  0.00  0.00    -0.650 OA
BRANCH  53  55
HETATM   55  O   UNK     0       1.654  14.878  19.455  0.00  0.00    -0.776 OA
HETATM   56  H   UNK     0       0.951  15.576  19.399  0.00  0.00     0.167 HD
ENDBRANCH  53  55
ENDBRANCH  52  53
ENDBRANCH  51  52
ENDBRANCH  18  51
TORSDOF 16
ENDMDL
MODEL 14
REMARK VINA RESULT:      -9.4      5.871      9.589
REMARK  16 active torsions:
REMARK  status: ('A' for Active; 'I' for Inactive)
REMARK    1  A    between atoms: C_6  and  C_7 
REMARK    2  A    between atoms: C_7  and  C_8 
REMARK    3  A    between atoms: C_8  and  C_9 
REMARK    4  A    between atoms: C_9  and  O_11 
REMARK    5  A    between atoms: C_16  and  C_17 
REMARK    6  A    between atoms: C_17  and  C_18 
REMARK    7  A    between atoms: C_18  and  C_19 
REMARK    8  A    between atoms: C_19  and  O_21 
REMARK    9  A    between atoms: C_28  and  C_29 
REMARK   10  A    between atoms: C_29  and  C_30 
REMARK   11  A    between atoms: C_30  and  C_31 
REMARK   12  A    between atoms: C_31  and  O_33 
REMARK   13  A    between atoms: C_42  and  C_43 
REMARK   14  A    between atoms: C_43  and  C_44 
REMARK   15  A    between atoms: C_44  and  C_45 
REMARK   16  A    between atoms: C_45  and  O_47 
ROOT
HETATM    1  C   UNK     0      -6.166   5.910  21.725  0.00  0.00     0.051 C 
HETATM    2  C   UNK     0      -5.170   4.773  21.826  0.00  0.00    -0.031 A 
HETATM    3  C   UNK     0      -3.836   4.736  21.451  0.00  0.00     0.021 A 
HETATM    4  N   UNK     0      -3.343   3.499  21.696  0.00  0.00    -0.361 N 
HETATM    5  C   UNK     0      -4.330   2.750  22.227  0.00  0.00     0.022 A 
HETATM    6  C   UNK     0      -5.488   3.515  22.320  0.00  0.00    -0.027 A 
HETATM    7  C   UNK     0      -4.284   1.351  22.758  0.00  0.00     0.115 C 
HETATM    8  C   UNK     0      -3.078   0.983  23.605  0.00  0.00     0.021 A 
HETATM    9  N   UNK     0      -2.401   1.750  24.474  0.00  0.00    -0.361 N 
HETATM   10  C   UNK     0      -1.348   1.039  24.928  0.00  0.00     0.022 A 
HETATM   11  C   UNK     0      -1.351  -0.224  24.343  0.00  0.00    -0.027 A 
HETATM   12  C   UNK     0      -2.439  -0.266  23.509  0.00  0.00    -0.031 A 
HETATM   13  C   UNK     0      -2.847  -1.452  22.664  0.00  0.00     0.051 C 
HETATM   14  C   UNK     0      -0.270   1.538  25.887  0.00  0.00     0.115 C 
HETATM   15  C   UNK     0       0.520   2.725  25.361  0.00  0.00     0.021 A 
HETATM   16  N   UNK     0       0.045   3.928  24.989  0.00  0.00    -0.361 N 
HETATM   17  C   UNK     0       1.049   4.671  24.519  0.00  0.00     0.022 A 
HETATM   18  C   UNK     0       2.238   3.918  24.597  0.00  0.00    -0.027 A 
HETATM   19  C   UNK     0       1.894   2.702  25.127  0.00  0.00    -0.031 A 
HETATM   20  C   UNK     0       2.890   1.594  25.415  0.00  0.00     0.051 C 
HETATM   21  C   UNK     0       1.034   6.057  23.915  0.00  0.00     0.115 C 
HETATM   22  C   UNK     0      -0.179   6.452  23.106  0.00  0.00     0.022 A 
HETATM   23  N   UNK     0      -0.876   5.708  22.237  0.00  0.00    -0.361 N 
HETATM   24  C   UNK     0      -1.963   6.408  21.857  0.00  0.00     0.021 A 
HETATM   25  C   UNK     0      -1.962   7.637  22.489  0.00  0.00    -0.031 A 
HETATM   26  C   UNK     0      -2.947   8.779  22.353  0.00  0.00     0.051 C 
HETATM   27  C   UNK     0      -0.830   7.688  23.293  0.00  0.00    -0.027 A 
HETATM   28  C   UNK     0      -3.097   5.948  20.957  0.00  0.00     0.115 C 
HETATM   29  H   UNK     0      -2.311   3.153  21.455  0.00  0.00     0.165 HD
HETATM   30  H   UNK     0      -2.693   2.776  24.806  0.00  0.00     0.165 HD
HETATM   31  H   UNK     0      -1.014   4.279  25.105  0.00  0.00     0.165 HD
HETATM   32  H   UNK     0      -0.583   4.697  21.851  0.00  0.00     0.165 HD
ENDROOT
BRANCH   6  33
HETATM   33  C   UNK     0      -6.857   3.145  22.833  0.00  0.00     0.051 C 
BRANCH  33  34
HETATM   34  C   UNK     0      -7.625   2.363  21.794  0.00  0.00     0.114 C 
BRANCH  34  35
HETATM   35  C   UNK     0      -8.682   3.262  21.249  0.00  0.00     0.139 C 
HETATM   36  O   UNK     0      -8.514   3.840  20.136  0.00  0.00    -0.650 OA
BRANCH  35  37
HETATM   37  O   UNK     0      -9.877   3.504  21.915  0.00  0.00    -0.776 OA
HETATM   38  H   UNK     0     -10.741   3.660  21.423  0.00  0.00     0.167 HD
ENDBRANCH  35  37
ENDBRANCH  34  35
ENDBRANCH  33  34
ENDBRANCH   6  33
BRANCH  27  39
HETATM   39  C   UNK     0      -0.448   8.893  24.079  0.00  0.00     0.051 C 
BRANCH  39  40
HETATM   40  C   UNK     0      -0.943   9.013  25.451  0.00  0.00     0.114 C 
BRANCH  40  41
HETATM   41  C   UNK     0      -0.058   9.002  26.593  0.00  0.00     0.139 C 
HETATM   42  O   UNK     0      -0.053   8.104  27.446  0.00  0.00    -0.650 OA
BRANCH  41  43
HETATM   43  O   UNK     0       0.863  10.074  26.764  0.00  0.00    -0.776 OA
HETATM   44  H   UNK     0       1.612  10.096  26.082  0.00  0.00     0.167 HD
ENDBRANCH  41  43
ENDBRANCH  40  41
ENDBRANCH  39  40
ENDBRANCH  27  39
BRANCH  11  45
HETATM   45  C   UNK     0      -0.385  -1.360  24.548  0.00  0.00     0.051 C 
BRANCH  45  46
HETATM   46  C   UNK     0      -0.659  -2.178  25.757  0.00  0.00     0.114 C 
BRANCH  46  47
HETATM   47  C   UNK     0       0.370  -1.820  26.775  0.00  0.00     0.139 C 
HETATM   48  O   UNK     0      -0.009  -1.389  27.873  0.00  0.00    -0.650 OA
BRANCH  47  49
HETATM   49  O   UNK     0       1.707  -1.964  26.504  0.00  0.00    -0.776 OA
HETATM   50  H   UNK     0       2.411  -2.021  27.248  0.00  0.00     0.167 HD
ENDBRANCH  47  49
ENDBRANCH  46  47
ENDBRANCH  45  46
ENDBRANCH  11  45
BRANCH  18  51
HETATM   51  C   UNK     0       3.630   4.343  24.207  0.00  0.00     0.051 C 
BRANCH  51  52
HETATM   52  C   UNK     0       4.111   3.333  23.175  0.00  0.00     0.114 C 
BRANCH  52  53
HETATM   53  C   UNK     0       5.556   3.061  23.304  0.00  0.00     0.139 C 
HETATM   54  O   UNK     0       6.145   3.321  24.365  0.00  0.00    -0.650 OA
BRANCH  53  55
HETATM   55  O   UNK     0       6.243   2.524  22.243  0.00  0.00    -0.776 OA
HETATM   56  H   UNK     0       6.715   1.651  22.234  0.00  0.00     0.167 HD
ENDBRANCH  53  55
ENDBRANCH  52  53
ENDBRANCH  51  52
ENDBRANCH  18  51
TORSDOF 16
ENDMDL
MODEL 15
REMARK VINA RESULT:      -9.3      3.001      9.171
REMARK  16 active torsions:
REMARK  status: ('A' for Active; 'I' for Inactive)
REMARK    1  A    between atoms: C_6  and  C_7 
REMARK    2  A    between atoms: C_7  and  C_8 
REMARK    3  A    between atoms: C_8  and  C_9 
REMARK    4  A    between atoms: C_9  and  O_11 
REMARK    5  A    between atoms: C_16  and  C_17 
REMARK    6  A    between atoms: C_17  and  C_18 
REMARK    7  A    between atoms: C_18  and  C_19 
REMARK    8  A    between atoms: C_19  and  O_21 
REMARK    9  A    between atoms: C_28  and  C_29 
REMARK   10  A    between atoms: C_29  and  C_30 
REMARK   11  A    between atoms: C_30  and  C_31 
REMARK   12  A    between atoms: C_31  and  O_33 
REMARK   13  A    between atoms: C_42  and  C_43 
REMARK   14  A    between atoms: C_43  and  C_44 
REMARK   15  A    between atoms: C_44  and  C_45 
REMARK   16  A    between atoms: C_45  and  O_47 
ROOT
HETATM    1  C   UNK     0       5.910   1.884  24.296  0.00  0.00     0.051 C 
HETATM    2  C   UNK     0       5.366   3.179  23.728  0.00  0.00    -0.031 A 
HETATM    3  C   UNK     0       4.147   3.428  23.116  0.00  0.00     0.021 A 
HETATM    4  N   UNK     0       4.102   4.727  22.736  0.00  0.00    -0.361 N 
HETATM    5  C   UNK     0       5.261   5.313  23.100  0.00  0.00     0.022 A 
HETATM    6  C   UNK     0       6.076   4.372  23.721  0.00  0.00    -0.027 A 
HETATM    7  C   UNK     0       5.676   6.747  22.996  0.00  0.00     0.115 C 
HETATM    8  C   UNK     0       4.633   7.787  23.366  0.00  0.00     0.021 A 
HETATM    9  N   UNK     0       3.691   7.724  24.319  0.00  0.00    -0.361 N 
HETATM   10  C   UNK     0       2.928   8.834  24.229  0.00  0.00     0.022 A 
HETATM   11  C   UNK     0       3.398   9.639  23.195  0.00  0.00    -0.027 A 
HETATM   12  C   UNK     0       4.472   8.985  22.647  0.00  0.00    -0.031 A 
HETATM   13  C   UNK     0       5.306   9.491  21.492  0.00  0.00     0.051 C 
HETATM   14  C   UNK     0       1.699   9.155  25.076  0.00  0.00     0.115 C 
HETATM   15  C   UNK     0       0.573   8.143  24.933  0.00  0.00     0.021 A 
HETATM   16  N   UNK     0       0.620   6.821  25.184  0.00  0.00    -0.361 N 
HETATM   17  C   UNK     0      -0.556   6.273  24.868  0.00  0.00     0.022 A 
HETATM   18  C   UNK     0      -1.413   7.289  24.398  0.00  0.00    -0.027 A 
HETATM   19  C   UNK     0      -0.694   8.455  24.445  0.00  0.00    -0.031 A 
HETATM   20  C   UNK     0      -1.258   9.810  24.057  0.00  0.00     0.051 C 
HETATM   21  C   UNK     0      -0.992   4.826  24.895  0.00  0.00     0.115 C 
HETATM   22  C   UNK     0       0.047   3.778  24.572  0.00  0.00     0.022 A 
HETATM   23  N   UNK     0       0.999   3.816  23.631  0.00  0.00    -0.361 N 
HETATM   24  C   UNK     0       1.794   2.739  23.790  0.00  0.00     0.021 A 
HETATM   25  C   UNK     0       1.336   1.983  24.852  0.00  0.00    -0.031 A 
HETATM   26  C   UNK     0       1.870   0.671  25.389  0.00  0.00     0.051 C 
HETATM   27  C   UNK     0       0.219   2.628  25.369  0.00  0.00    -0.027 A 
HETATM   28  C   UNK     0       3.059   2.396  23.022  0.00  0.00     0.115 C 
HETATM   29  H   UNK     0       3.267   5.211  22.178  0.00  0.00     0.165 HD
HETATM   30  H   UNK     0       3.592   6.921  25.090  0.00  0.00     0.165 HD
HETATM   31  H   UNK     0       1.484   6.270  25.638  0.00  0.00     0.165 HD
HETATM   32  H   UNK     0       1.094   4.582  22.818  0.00  0.00     0.165 HD
ENDROOT
BRANCH   6  33
HETATM   33  C   UNK     0       7.461   4.519  24.297  0.00  0.00     0.051 C 
BRANCH  33  34
HETATM   34  C   UNK     0       8.497   4.557  23.199  0.00  0.00     0.114 C 
BRANCH  34  35
HETATM   35  C   UNK     0       9.299   5.801  23.384  0.00  0.00     0.139 C 
HETATM   36  O   UNK     0      10.254   6.066  22.598  0.00  0.00    -0.650 OA
BRANCH  35  37
HETATM   37  O   UNK     0       9.044   6.711  24.402  0.00  0.00    -0.776 OA
HETATM   38  H   UNK     0       8.400   6.511  25.150  0.00  0.00     0.167 HD
ENDBRANCH  35  37
ENDBRANCH  34  35
ENDBRANCH  33  34
ENDBRANCH   6  33
BRANCH  27  39
HETATM   39  C   UNK     0      -0.594   2.072  26.485  0.00  0.00     0.051 C 
BRANCH  39  40
HETATM   40  C   UNK     0      -0.081   2.202  27.849  0.00  0.00     0.114 C 
BRANCH  40  41
HETATM   41  C   UNK     0       0.715   3.333  28.268  0.00  0.00     0.139 C 
HETATM   42  O   UNK     0       0.273   4.487  28.352  0.00  0.00    -0.650 OA
BRANCH  41  43
HETATM   43  O   UNK     0       2.082   3.128  28.608  0.00  0.00    -0.776 OA
HETATM   44  H   UNK     0       2.722   3.187  27.824  0.00  0.00     0.167 HD
ENDBRANCH  41  43
ENDBRANCH  40  41
ENDBRANCH  39  40
ENDBRANCH  27  39
BRANCH  11  45
HETATM   45  C   UNK     0       2.876  10.971  22.727  0.00  0.00     0.051 C 
BRANCH  45  46
HETATM   46  C   UNK     0       1.811  10.876  21.696  0.00  0.00     0.114 C 
BRANCH  46  47
HETATM   47  C   UNK     0       0.964  12.096  21.822  0.00  0.00     0.139 C 
HETATM   48  O   UNK     0       1.507  13.164  22.137  0.00  0.00    -0.650 OA
BRANCH  47  49
HETATM   49  O   UNK     0      -0.388  12.039  21.598  0.00  0.00    -0.776 OA
HETATM   50  H   UNK     0      -1.072  12.324  22.309  0.00  0.00     0.167 HD
ENDBRANCH  47  49
ENDBRANCH  46  47
ENDBRANCH  45  46
ENDBRANCH  11  45
BRANCH  18  51
HETATM   51  C   UNK     0      -2.845   7.158  23.949  0.00  0.00     0.051 C 
BRANCH  51  52
HETATM   52  C   UNK     0      -2.797   6.773  22.478  0.00  0.00     0.114 C 
BRANCH  52  53
HETATM   53  C   UNK     0      -3.409   7.805  21.620  0.00  0.00     0.139 C 
HETATM   54  O   UNK     0      -4.629   7.780  21.391  0.00  0.00    -0.650 OA
BRANCH  53  55
HETATM   55  O   UNK     0      -2.622   8.790  21.074  0.00  0.00    -0.776 OA
HETATM   56  H   UNK     0      -2.936   9.668  20.734  0.00  0.00     0.167 HD
ENDBRANCH  53  55
ENDBRANCH  52  53
ENDBRANCH  51  52
ENDBRANCH  18  51
TORSDOF 16
ENDMDL
MODEL 16
REMARK VINA RESULT:      -8.9      2.546      9.541
REMARK  16 active torsions:
REMARK  status: ('A' for Active; 'I' for Inactive)
REMARK    1  A    between atoms: C_6  and  C_7 
REMARK    2  A    between atoms: C_7  and  C_8 
REMARK    3  A    between atoms: C_8  and  C_9 
REMARK    4  A    between atoms: C_9  and  O_11 
REMARK    5  A    between atoms: C_16  and  C_17 
REMARK    6  A    between atoms: C_17  and  C_18 
REMARK    7  A    between atoms: C_18  and  C_19 
REMARK    8  A    between atoms: C_19  and  O_21 
REMARK    9  A    between atoms: C_28  and  C_29 
REMARK   10  A    between atoms: C_29  and  C_30 
REMARK   11  A    between atoms: C_30  and  C_31 
REMARK   12  A    between atoms: C_31  and  O_33 
REMARK   13  A    between atoms: C_42  and  C_43 
REMARK   14  A    between atoms: C_43  and  C_44 
REMARK   15  A    between atoms: C_44  and  C_45 
REMARK   16  A    between atoms: C_45  and  O_47 
ROOT
HETATM    1  C   UNK     0       6.719  12.926  19.672  0.00  0.00     0.051 C 
HETATM    2  C   UNK     0       5.491  12.106  20.011  0.00  0.00    -0.031 A 
HETATM    3  C   UNK     0       5.245  10.759  19.797  0.00  0.00     0.021 A 
HETATM    4  N   UNK     0       3.998  10.463  20.233  0.00  0.00    -0.361 N 
HETATM    5  C   UNK     0       3.447  11.590  20.729  0.00  0.00     0.022 A 
HETATM    6  C   UNK     0       4.353  12.638  20.603  0.00  0.00    -0.027 A 
HETATM    7  C   UNK     0       2.130  11.784  21.414  0.00  0.00     0.115 C 
HETATM    8  C   UNK     0       1.728  10.728  22.429  0.00  0.00     0.021 A 
HETATM    9  N   UNK     0       2.509  10.043  23.277  0.00  0.00    -0.361 N 
HETATM   10  C   UNK     0       1.738   9.145  23.925  0.00  0.00     0.022 A 
HETATM   11  C   UNK     0       0.422   9.260  23.489  0.00  0.00    -0.027 A 
HETATM   12  C   UNK     0       0.408  10.256  22.546  0.00  0.00    -0.031 A 
HETATM   13  C   UNK     0      -0.816  10.735  21.797  0.00  0.00     0.051 C 
HETATM   14  C   UNK     0       2.218   8.109  24.939  0.00  0.00     0.115 C 
HETATM   15  C   UNK     0       3.225   7.119  24.377  0.00  0.00     0.021 A 
HETATM   16  N   UNK     0       4.422   7.389  23.822  0.00  0.00    -0.361 N 
HETATM   17  C   UNK     0       4.971   6.253  23.389  0.00  0.00     0.022 A 
HETATM   18  C   UNK     0       4.096   5.189  23.685  0.00  0.00    -0.027 A 
HETATM   19  C   UNK     0       3.007   5.745  24.305  0.00  0.00    -0.031 A 
HETATM   20  C   UNK     0       1.831   4.939  24.826  0.00  0.00     0.051 C 
HETATM   21  C   UNK     0       6.262   6.023  22.636  0.00  0.00     0.115 C 
HETATM   22  C   UNK     0       6.698   7.086  21.656  0.00  0.00     0.022 A 
HETATM   23  N   UNK     0       5.941   7.787  20.802  0.00  0.00    -0.361 N 
HETATM   24  C   UNK     0       6.715   8.728  20.224  0.00  0.00     0.021 A 
HETATM   25  C   UNK     0       8.003   8.624  20.711  0.00  0.00    -0.031 A 
HETATM   26  C   UNK     0       9.231   9.428  20.337  0.00  0.00     0.051 C 
HETATM   27  C   UNK     0       8.018   7.580  21.628  0.00  0.00    -0.027 A 
HETATM   28  C   UNK     0       6.286   9.819  19.258  0.00  0.00     0.115 C 
HETATM   29  H   UNK     0       3.501   9.468  20.152  0.00  0.00     0.165 HD
HETATM   30  H   UNK     0       3.597  10.225  23.458  0.00  0.00     0.165 HD
HETATM   31  H   UNK     0       4.910   8.397  23.776  0.00  0.00     0.165 HD
HETATM   32  H   UNK     0       4.861   7.596  20.566  0.00  0.00     0.165 HD
ENDROOT
BRANCH   6  33
HETATM   33  C   UNK     0       4.219  14.088  20.995  0.00  0.00     0.051 C 
BRANCH  33  34
HETATM   34  C   UNK     0       3.558  14.881  19.894  0.00  0.00     0.114 C 
BRANCH  34  35
HETATM   35  C   UNK     0       2.127  15.064  20.273  0.00  0.00     0.139 C 
HETATM   36  O   UNK     0       1.808  15.259  21.482  0.00  0.00    -0.650 OA
BRANCH  35  37
HETATM   37  O   UNK     0       1.096  15.034  19.342  0.00  0.00    -0.776 OA
HETATM   38  H   UNK     0       0.994  14.281  18.681  0.00  0.00     0.167 HD
ENDBRANCH  35  37
ENDBRANCH  34  35
ENDBRANCH  33  34
ENDBRANCH   6  33
BRANCH  27  39
HETATM   39  C   UNK     0       9.256   7.119  22.313  0.00  0.00     0.051 C 
BRANCH  39  40
HETATM   40  C   UNK     0       9.441   7.468  23.722  0.00  0.00     0.114 C 
BRANCH  40  41
HETATM   41  C   UNK     0       9.568   6.464  24.754  0.00  0.00     0.139 C 
HETATM   42  O   UNK     0       8.629   5.752  25.135  0.00  0.00    -0.650 OA
BRANCH  41  43
HETATM   43  O   UNK     0      10.834   6.270  25.377  0.00  0.00    -0.776 OA
HETATM   44  H   UNK     0      11.029   5.311  25.639  0.00  0.00     0.167 HD
ENDBRANCH  41  43
ENDBRANCH  40  41
ENDBRANCH  39  40
ENDBRANCH  27  39
BRANCH  11  45
HETATM   45  C   UNK     0      -0.788   8.480  23.928  0.00  0.00     0.051 C 
BRANCH  45  46
HETATM   46  C   UNK     0      -0.931   7.159  23.264  0.00  0.00     0.114 C 
BRANCH  46  47
HETATM   47  C   UNK     0      -2.095   7.253  22.338  0.00  0.00     0.139 C 
HETATM   48  O   UNK     0      -2.131   6.503  21.353  0.00  0.00    -0.650 OA
BRANCH  47  49
HETATM   49  O   UNK     0      -3.106   8.152  22.569  0.00  0.00    -0.776 OA
HETATM   50  H   UNK     0      -4.094   7.910  22.425  0.00  0.00     0.167 HD
ENDBRANCH  47  49
ENDBRANCH  46  47
ENDBRANCH  45  46
ENDBRANCH  11  45
BRANCH  18  51
HETATM   51  C   UNK     0       4.296   3.721  23.411  0.00  0.00     0.051 C 
BRANCH  51  52
HETATM   52  C   UNK     0       5.728   3.403  23.815  0.00  0.00     0.114 C 
BRANCH  52  53
HETATM   53  C   UNK     0       5.915   1.965  24.088  0.00  0.00     0.139 C 
HETATM   54  O   UNK     0       5.407   1.452  25.097  0.00  0.00    -0.650 OA
BRANCH  53  55
HETATM   55  O   UNK     0       6.658   1.201  23.220  0.00  0.00    -0.776 OA
HETATM   56  H   UNK     0       7.435   1.511  22.687  0.00  0.00     0.167 HD
ENDBRANCH  53  55
ENDBRANCH  52  53
ENDBRANCH  51  52
ENDBRANCH  18  51
TORSDOF 16
ENDMDL
MODEL 17
REMARK VINA RESULT:      -8.9      4.603      9.770
REMARK  16 active torsions:
REMARK  status: ('A' for Active; 'I' for Inactive)
REMARK    1  A    between atoms: C_6  and  C_7 
REMARK    2  A    between atoms: C_7  and  C_8 
REMARK    3  A    between atoms: C_8  and  C_9 
REMARK    4  A    between atoms: C_9  and  O_11 
REMARK    5  A    between atoms: C_16  and  C_17 
REMARK    6  A    between atoms: C_17  and  C_18 
REMARK    7  A    between atoms: C_18  and  C_19 
REMARK    8  A    between atoms: C_19  and  O_21 
REMARK    9  A    between atoms: C_28  and  C_29 
REMARK   10  A    between atoms: C_29  and  C_30 
REMARK   11  A    between atoms: C_30  and  C_31 
REMARK   12  A    between atoms: C_31  and  O_33 
REMARK   13  A    between atoms: C_42  and  C_43 
REMARK   14  A    between atoms: C_43  and  C_44 
REMARK   15  A    between atoms: C_44  and  C_45 
REMARK   16  A    between atoms: C_45  and  O_47 
ROOT
HETATM    1  C   UNK     0      -2.706  -0.722  23.182  0.00  0.00     0.051 C 
HETATM    2  C   UNK     0      -2.572   0.753  23.501  0.00  0.00    -0.031 A 
HETATM    3  C   UNK     0      -1.635   1.401  24.290  0.00  0.00     0.021 A 
HETATM    4  N   UNK     0      -1.920   2.724  24.317  0.00  0.00    -0.361 N 
HETATM    5  C   UNK     0      -3.013   2.935  23.556  0.00  0.00     0.022 A 
HETATM    6  C   UNK     0      -3.449   1.722  23.032  0.00  0.00    -0.027 A 
HETATM    7  C   UNK     0      -3.680   4.223  23.182  0.00  0.00     0.115 C 
HETATM    8  C   UNK     0      -2.768   5.377  22.804  0.00  0.00     0.021 A 
HETATM    9  N   UNK     0      -1.601   5.339  22.144  0.00  0.00    -0.361 N 
HETATM   10  C   UNK     0      -1.095   6.590  22.114  0.00  0.00     0.022 A 
HETATM   11  C   UNK     0      -1.965   7.459  22.764  0.00  0.00    -0.027 A 
HETATM   12  C   UNK     0      -3.022   6.702  23.201  0.00  0.00    -0.031 A 
HETATM   13  C   UNK     0      -4.220   7.228  23.960  0.00  0.00     0.051 C 
HETATM   14  C   UNK     0       0.248   7.005  21.520  0.00  0.00     0.115 C 
HETATM   15  C   UNK     0       1.445   6.337  22.178  0.00  0.00     0.021 A 
HETATM   16  N   UNK     0       1.697   5.018  22.278  0.00  0.00    -0.361 N 
HETATM   17  C   UNK     0       2.813   4.838  22.988  0.00  0.00     0.022 A 
HETATM   18  C   UNK     0       3.317   6.099  23.360  0.00  0.00    -0.027 A 
HETATM   19  C   UNK     0       2.452   7.030  22.845  0.00  0.00    -0.031 A 
HETATM   20  C   UNK     0       2.645   8.529  22.985  0.00  0.00     0.051 C 
HETATM   21  C   UNK     0       3.480   3.559  23.442  0.00  0.00     0.115 C 
HETATM   22  C   UNK     0       2.587   2.388  23.779  0.00  0.00     0.022 A 
HETATM   23  N   UNK     0       1.417   2.397  24.432  0.00  0.00    -0.361 N 
HETATM   24  C   UNK     0       0.894   1.155  24.382  0.00  0.00     0.021 A 
HETATM   25  C   UNK     0       1.753   0.324  23.689  0.00  0.00    -0.031 A 
HETATM   26  C   UNK     0       1.624  -1.159  23.406  0.00  0.00     0.051 C 
HETATM   27  C   UNK     0       2.844   1.090  23.294  0.00  0.00    -0.027 A 
HETATM   28  C   UNK     0      -0.457   0.694  24.899  0.00  0.00     0.115 C 
HETATM   29  H   UNK     0      -1.370   3.495  24.906  0.00  0.00     0.165 HD
HETATM   30  H   UNK     0      -1.154   4.439  21.654  0.00  0.00     0.165 HD
HETATM   31  H   UNK     0       1.102   4.199  21.797  0.00  0.00     0.165 HD
HETATM   32  H   UNK     0       0.969   3.272  24.972  0.00  0.00     0.165 HD
ENDROOT
BRANCH   6  33
HETATM   33  C   UNK     0      -4.621   1.419  22.134  0.00  0.00     0.051 C 
BRANCH  33  34
HETATM   34  C   UNK     0      -5.880   2.065  22.660  0.00  0.00     0.114 C 
BRANCH  34  35
HETATM   35  C   UNK     0      -6.941   1.884  21.628  0.00  0.00     0.139 C 
HETATM   36  O   UNK     0      -6.644   1.438  20.481  0.00  0.00    -0.650 OA
BRANCH  35  37
HETATM   37  O   UNK     0      -8.276   2.185  21.864  0.00  0.00    -0.776 OA
HETATM   38  H   UNK     0      -8.582   2.629  22.715  0.00  0.00     0.167 HD
ENDBRANCH  35  37
ENDBRANCH  34  35
ENDBRANCH  33  34
ENDBRANCH   6  33
BRANCH  27  39
HETATM   39  C   UNK     0       4.019   0.520  22.580  0.00  0.00     0.051 C 
BRANCH  39  40
HETATM   40  C   UNK     0       5.184   0.122  23.370  0.00  0.00     0.114 C 
BRANCH  40  41
HETATM   41  C   UNK     0       6.120   1.086  23.903  0.00  0.00     0.139 C 
HETATM   42  O   UNK     0       6.779   1.861  23.197  0.00  0.00    -0.650 OA
BRANCH  41  43
HETATM   43  O   UNK     0       6.308   1.161  25.312  0.00  0.00    -0.776 OA
HETATM   44  H   UNK     0       7.257   0.984  25.619  0.00  0.00     0.167 HD
ENDBRANCH  41  43
ENDBRANCH  40  41
ENDBRANCH  39  40
ENDBRANCH  27  39
BRANCH  11  45
HETATM   45  C   UNK     0      -1.831   8.944  22.975  0.00  0.00     0.051 C 
BRANCH  45  46
HETATM   46  C   UNK     0      -0.667   9.334  23.811  0.00  0.00     0.114 C 
BRANCH  46  47
HETATM   47  C   UNK     0      -1.107   9.276  25.235  0.00  0.00     0.139 C 
HETATM   48  O   UNK     0      -0.749   8.312  25.926  0.00  0.00    -0.650 OA
BRANCH  47  49
HETATM   49  O   UNK     0      -1.893  10.266  25.768  0.00  0.00    -0.776 OA
HETATM   50  H   UNK     0      -2.738  10.606  25.294  0.00  0.00     0.167 HD
ENDBRANCH  47  49
ENDBRANCH  46  47
ENDBRANCH  45  46
ENDBRANCH  11  45
BRANCH  18  51
HETATM   51  C   UNK     0       4.567   6.402  24.146  0.00  0.00     0.051 C 
BRANCH  51  52
HETATM   52  C   UNK     0       5.670   6.624  23.122  0.00  0.00     0.114 C 
BRANCH  52  53
HETATM   53  C   UNK     0       6.853   5.786  23.398  0.00  0.00     0.139 C 
HETATM   54  O   UNK     0       7.965   6.115  22.955  0.00  0.00    -0.650 OA
BRANCH  53  55
HETATM   55  O   UNK     0       6.715   4.641  24.144  0.00  0.00    -0.776 OA
HETATM   56  H   UNK     0       7.037   3.736  23.891  0.00  0.00     0.167 HD
ENDBRANCH  53  55
ENDBRANCH  52  53
ENDBRANCH  51  52
ENDBRANCH  18  51
TORSDOF 16
ENDMDL
MODEL 18
REMARK VINA RESULT:      -8.8      2.578      3.973
REMARK  16 active torsions:
REMARK  status: ('A' for Active; 'I' for Inactive)
REMARK    1  A    between atoms: C_6  and  C_7 
REMARK    2  A    between atoms: C_7  and  C_8 
REMARK    3  A    between atoms: C_8  and  C_9 
REMARK    4  A    between atoms: C_9  and  O_11 
REMARK    5  A    between atoms: C_16  and  C_17 
REMARK    6  A    between atoms: C_17  and  C_18 
REMARK    7  A    between atoms: C_18  and  C_19 
REMARK    8  A    between atoms: C_19  and  O_21 
REMARK    9  A    between atoms: C_28  and  C_29 
REMARK   10  A    between atoms: C_29  and  C_30 
REMARK   11  A    between atoms: C_30  and  C_31 
REMARK   12  A    between atoms: C_31  and  O_33 
REMARK   13  A    between atoms: C_42  and  C_43 
REMARK   14  A    between atoms: C_43  and  C_44 
REMARK   15  A    between atoms: C_44  and  C_45 
REMARK   16  A    between atoms: C_45  and  O_47 
ROOT
HETATM    1  C   UNK     0      -0.943   3.156  25.693  0.00  0.00     0.051 C 
HETATM    2  C   UNK     0       0.321   3.171  24.856  0.00  0.00    -0.031 A 
HETATM    3  C   UNK     0       0.546   3.741  23.614  0.00  0.00     0.021 A 
HETATM    4  N   UNK     0       1.819   3.479  23.232  0.00  0.00    -0.361 N 
HETATM    5  C   UNK     0       2.412   2.761  24.209  0.00  0.00     0.022 A 
HETATM    6  C   UNK     0       1.502   2.548  25.239  0.00  0.00    -0.027 A 
HETATM    7  C   UNK     0       3.831   2.299  24.323  0.00  0.00     0.115 C 
HETATM    8  C   UNK     0       4.906   3.296  23.927  0.00  0.00     0.021 A 
HETATM    9  N   UNK     0       4.916   4.627  24.098  0.00  0.00    -0.361 N 
HETATM   10  C   UNK     0       6.028   5.116  23.510  0.00  0.00     0.022 A 
HETATM   11  C   UNK     0       6.759   4.071  22.954  0.00  0.00    -0.027 A 
HETATM   12  C   UNK     0       6.058   2.921  23.212  0.00  0.00    -0.031 A 
HETATM   13  C   UNK     0       6.478   1.529  22.797  0.00  0.00     0.051 C 
HETATM   14  C   UNK     0       6.418   6.588  23.404  0.00  0.00     0.115 C 
HETATM   15  C   UNK     0       5.415   7.437  22.640  0.00  0.00     0.021 A 
HETATM   16  N   UNK     0       4.111   7.620  22.921  0.00  0.00    -0.361 N 
HETATM   17  C   UNK     0       3.560   8.378  21.971  0.00  0.00     0.022 A 
HETATM   18  C   UNK     0       4.555   8.714  21.031  0.00  0.00    -0.027 A 
HETATM   19  C   UNK     0       5.712   8.119  21.462  0.00  0.00    -0.031 A 
HETATM   20  C   UNK     0       7.047   8.257  20.753  0.00  0.00     0.051 C 
HETATM   21  C   UNK     0       2.123   8.811  21.784  0.00  0.00     0.115 C 
HETATM   22  C   UNK     0       1.043   7.846  22.215  0.00  0.00     0.022 A 
HETATM   23  N   UNK     0       1.008   6.516  22.061  0.00  0.00    -0.361 N 
HETATM   24  C   UNK     0      -0.067   6.042  22.721  0.00  0.00     0.021 A 
HETATM   25  C   UNK     0      -0.747   7.093  23.305  0.00  0.00    -0.031 A 
HETATM   26  C   UNK     0      -2.030   7.068  24.111  0.00  0.00     0.051 C 
HETATM   27  C   UNK     0      -0.056   8.258  22.995  0.00  0.00    -0.027 A 
HETATM   28  C   UNK     0      -0.475   4.591  22.912  0.00  0.00     0.115 C 
HETATM   29  H   UNK     0       2.277   3.768  22.258  0.00  0.00     0.165 HD
HETATM   30  H   UNK     0       4.165   5.218  24.677  0.00  0.00     0.165 HD
HETATM   31  H   UNK     0       3.579   7.246  23.834  0.00  0.00     0.165 HD
HETATM   32  H   UNK     0       1.720   5.904  21.448  0.00  0.00     0.165 HD
ENDROOT
BRANCH   6  33
HETATM   33  C   UNK     0       1.666   1.805  26.540  0.00  0.00     0.051 C 
BRANCH  33  34
HETATM   34  C   UNK     0       1.250   0.361  26.389  0.00  0.00     0.114 C 
BRANCH  34  35
HETATM   35  C   UNK     0       0.272   0.062  27.475  0.00  0.00     0.139 C 
HETATM   36  O   UNK     0      -0.214   1.000  28.170  0.00  0.00    -0.650 OA
BRANCH  35  37
HETATM   37  O   UNK     0      -0.146  -1.229  27.771  0.00  0.00    -0.776 OA
HETATM   38  H   UNK     0      -0.426  -1.879  27.053  0.00  0.00     0.167 HD
ENDBRANCH  35  37
ENDBRANCH  34  35
ENDBRANCH  33  34
ENDBRANCH   6  33
BRANCH  27  39
HETATM   39  C   UNK     0      -0.529   9.612  23.394  0.00  0.00     0.051 C 
BRANCH  39  40
HETATM   40  C   UNK     0      -1.468  10.306  22.514  0.00  0.00     0.114 C 
BRANCH  40  41
HETATM   41  C   UNK     0      -2.164   9.630  21.443  0.00  0.00     0.139 C 
HETATM   42  O   UNK     0      -1.774   9.628  20.267  0.00  0.00    -0.650 OA
BRANCH  41  43
HETATM   43  O   UNK     0      -3.365   8.923  21.737  0.00  0.00    -0.776 OA
HETATM   44  H   UNK     0      -4.206   9.484  21.681  0.00  0.00     0.167 HD
ENDBRANCH  41  43
ENDBRANCH  40  41
ENDBRANCH  39  40
ENDBRANCH  27  39
BRANCH  11  45
HETATM   45  C   UNK     0       8.065   4.128  22.208  0.00  0.00     0.051 C 
BRANCH  45  46
HETATM   46  C   UNK     0       9.164   4.787  22.959  0.00  0.00     0.114 C 
BRANCH  46  47
HETATM   47  C   UNK     0       9.766   5.809  22.055  0.00  0.00     0.139 C 
HETATM   48  O   UNK     0      10.025   6.929  22.517  0.00  0.00    -0.650 OA
BRANCH  47  49
HETATM   49  O   UNK     0      10.026   5.518  20.740  0.00  0.00    -0.776 OA
HETATM   50  H   UNK     0      10.570   4.692  20.462  0.00  0.00     0.167 HD
ENDBRANCH  47  49
ENDBRANCH  46  47
ENDBRANCH  45  46
ENDBRANCH  11  45
BRANCH  18  51
HETATM   51  C   UNK     0       4.414   9.571  19.800  0.00  0.00     0.051 C 
BRANCH  51  52
HETATM   52  C   UNK     0       5.141  10.873  20.103  0.00  0.00     0.114 C 
BRANCH  52  53
HETATM   53  C   UNK     0       4.203  11.963  20.432  0.00  0.00     0.139 C 
HETATM   54  O   UNK     0       3.740  12.060  21.580  0.00  0.00    -0.650 OA
BRANCH  53  55
HETATM   55  O   UNK     0       3.842  12.866  19.461  0.00  0.00    -0.776 OA
HETATM   56  H   UNK     0       3.858  12.707  18.481  0.00  0.00     0.167 HD
ENDBRANCH  53  55
ENDBRANCH  52  53
ENDBRANCH  51  52
ENDBRANCH  18  51
TORSDOF 16
ENDMDL
MODEL 19
REMARK VINA RESULT:      -8.8      5.044     10.402
REMARK  16 active torsions:
REMARK  status: ('A' for Active; 'I' for Inactive)
REMARK    1  A    between atoms: C_6  and  C_7 
REMARK    2  A    between atoms: C_7  and  C_8 
REMARK    3  A    between atoms: C_8  and  C_9 
REMARK    4  A    between atoms: C_9  and  O_11 
REMARK    5  A    between atoms: C_16  and  C_17 
REMARK    6  A    between atoms: C_17  and  C_18 
REMARK    7  A    between atoms: C_18  and  C_19 
REMARK    8  A    between atoms: C_19  and  O_21 
REMARK    9  A    between atoms: C_28  and  C_29 
REMARK   10  A    between atoms: C_29  and  C_30 
REMARK   11  A    between atoms: C_30  and  C_31 
REMARK   12  A    between atoms: C_31  and  O_33 
REMARK   13  A    between atoms: C_42  and  C_43 
REMARK   14  A    between atoms: C_43  and  C_44 
REMARK   15  A    between atoms: C_44  and  C_45 
REMARK   16  A    between atoms: C_45  and  O_47 
ROOT
HETATM    1  C   UNK     0      -4.644   1.500  24.031  0.00  0.00     0.051 C 
HETATM    2  C   UNK     0      -3.533   2.445  24.442  0.00  0.00    -0.031 A 
HETATM    3  C   UNK     0      -2.374   2.183  25.155  0.00  0.00     0.021 A 
HETATM    4  N   UNK     0      -1.685   3.338  25.318  0.00  0.00    -0.361 N 
HETATM    5  C   UNK     0      -2.376   4.329  24.718  0.00  0.00     0.022 A 
HETATM    6  C   UNK     0      -3.539   3.806  24.162  0.00  0.00    -0.027 A 
HETATM    7  C   UNK     0      -2.009   5.767  24.530  0.00  0.00     0.115 C 
HETATM    8  C   UNK     0      -0.573   6.057  24.130  0.00  0.00     0.021 A 
HETATM    9  N   UNK     0       0.232   5.343  23.328  0.00  0.00    -0.361 N 
HETATM   10  C   UNK     0       1.450   5.925  23.330  0.00  0.00     0.022 A 
HETATM   11  C   UNK     0       1.426   7.051  24.149  0.00  0.00    -0.027 A 
HETATM   12  C   UNK     0       0.155   7.140  24.656  0.00  0.00    -0.031 A 
HETATM   13  C   UNK     0      -0.338   8.216  25.597  0.00  0.00     0.051 C 
HETATM   14  C   UNK     0       2.694   5.417  22.607  0.00  0.00     0.115 C 
HETATM   15  C   UNK     0       3.146   4.037  23.056  0.00  0.00     0.021 A 
HETATM   16  N   UNK     0       2.442   2.890  23.023  0.00  0.00    -0.361 N 
HETATM   17  C   UNK     0       3.168   1.914  23.572  0.00  0.00     0.022 A 
HETATM   18  C   UNK     0       4.409   2.448  23.973  0.00  0.00    -0.027 A 
HETATM   19  C   UNK     0       4.383   3.778  23.643  0.00  0.00    -0.031 A 
HETATM   20  C   UNK     0       5.545   4.727  23.872  0.00  0.00     0.051 C 
HETATM   21  C   UNK     0       2.810   0.469  23.840  0.00  0.00     0.115 C 
HETATM   22  C   UNK     0       1.375   0.161  24.196  0.00  0.00     0.022 A 
HETATM   23  N   UNK     0       0.548   0.856  24.988  0.00  0.00    -0.361 N 
HETATM   24  C   UNK     0      -0.679   0.303  24.910  0.00  0.00     0.021 A 
HETATM   25  C   UNK     0      -0.640  -0.780  24.053  0.00  0.00    -0.031 A 
HETATM   26  C   UNK     0      -1.750  -1.739  23.677  0.00  0.00     0.051 C 
HETATM   27  C   UNK     0       0.664  -0.892  23.584  0.00  0.00    -0.027 A 
HETATM   28  C   UNK     0      -1.963   0.794  25.556  0.00  0.00     0.115 C 
HETATM   29  H   UNK     0      -0.736   3.452  25.891  0.00  0.00     0.165 HD
HETATM   30  H   UNK     0      -0.070   4.456  22.719  0.00  0.00     0.165 HD
HETATM   31  H   UNK     0       1.430   2.756  22.560  0.00  0.00     0.165 HD
HETATM   32  H   UNK     0       0.834   1.718  25.645  0.00  0.00     0.165 HD
ENDROOT
BRANCH   6  33
HETATM   33  C   UNK     0      -4.642   4.492  23.397  0.00  0.00     0.051 C 
BRANCH  33  34
HETATM   34  C   UNK     0      -4.343   4.499  21.917  0.00  0.00     0.114 C 
BRANCH  34  35
HETATM   35  C   UNK     0      -4.449   5.911  21.447  0.00  0.00     0.139 C 
HETATM   36  O   UNK     0      -3.407   6.560  21.141  0.00  0.00    -0.650 OA
BRANCH  35  37
HETATM   37  O   UNK     0      -5.666   6.569  21.321  0.00  0.00    -0.776 OA
HETATM   38  H   UNK     0      -6.002   7.211  22.021  0.00  0.00     0.167 HD
ENDBRANCH  35  37
ENDBRANCH  34  35
ENDBRANCH  33  34
ENDBRANCH   6  33
BRANCH  27  39
HETATM   39  C   UNK     0       1.112  -1.992  22.688  0.00  0.00     0.051 C 
BRANCH  39  40
HETATM   40  C   UNK     0       1.688  -3.191  23.296  0.00  0.00     0.114 C 
BRANCH  40  41
HETATM   41  C   UNK     0       3.110  -3.335  23.519  0.00  0.00     0.139 C 
HETATM   42  O   UNK     0       3.854  -3.992  22.778  0.00  0.00    -0.650 OA
BRANCH  41  43
HETATM   43  O   UNK     0       3.701  -2.695  24.645  0.00  0.00    -0.776 OA
HETATM   44  H   UNK     0       3.216  -1.863  24.956  0.00  0.00     0.167 HD
ENDBRANCH  41  43
ENDBRANCH  40  41
ENDBRANCH  39  40
ENDBRANCH  27  39
BRANCH  11  45
HETATM   45  C   UNK     0       2.539   8.017  24.454  0.00  0.00     0.051 C 
BRANCH  45  46
HETATM   46  C   UNK     0       2.596   9.185  23.538  0.00  0.00     0.114 C 
BRANCH  46  47
HETATM   47  C   UNK     0       2.704  10.406  24.386  0.00  0.00     0.139 C 
HETATM   48  O   UNK     0       2.880  11.500  23.830  0.00  0.00    -0.650 OA
BRANCH  47  49
HETATM   49  O   UNK     0       2.610  10.324  25.752  0.00  0.00    -0.776 OA
HETATM   50  H   UNK     0       2.850  11.113  26.364  0.00  0.00     0.167 HD
ENDBRANCH  47  49
ENDBRANCH  46  47
ENDBRANCH  45  46
ENDBRANCH  11  45
BRANCH  18  51
HETATM   51  C   UNK     0       5.564   1.725  24.617  0.00  0.00     0.051 C 
BRANCH  51  52
HETATM   52  C   UNK     0       6.259   0.956  23.503  0.00  0.00     0.114 C 
BRANCH  52  53
HETATM   53  C   UNK     0       6.119  -0.503  23.673  0.00  0.00     0.139 C 
HETATM   54  O   UNK     0       5.836  -1.218  22.698  0.00  0.00    -0.650 OA
BRANCH  53  55
HETATM   55  O   UNK     0       6.301  -1.063  24.914  0.00  0.00    -0.776 OA
HETATM   56  H   UNK     0       6.758  -1.924  25.105  0.00  0.00     0.167 HD
ENDBRANCH  53  55
ENDBRANCH  52  53
ENDBRANCH  51  52
ENDBRANCH  18  51
TORSDOF 16
ENDMDL
MODEL 20
REMARK VINA RESULT:      -8.7      3.359      8.846
REMARK  16 active torsions:
REMARK  status: ('A' for Active; 'I' for Inactive)
REMARK    1  A    between atoms: C_6  and  C_7 
REMARK    2  A    between atoms: C_7  and  C_8 
REMARK    3  A    between atoms: C_8  and  C_9 
REMARK    4  A    between atoms: C_9  and  O_11 
REMARK    5  A    between atoms: C_16  and  C_17 
REMARK    6  A    between atoms: C_17  and  C_18 
REMARK    7  A    between atoms: C_18  and  C_19 
REMARK    8  A    between atoms: C_19  and  O_21 
REMARK    9  A    between atoms: C_28  and  C_29 
REMARK   10  A    between atoms: C_29  and  C_30 
REMARK   11  A    between atoms: C_30  and  C_31 
REMARK   12  A    between atoms: C_31  and  O_33 
REMARK   13  A    between atoms: C_42  and  C_43 
REMARK   14  A    between atoms: C_43  and  C_44 
REMARK   15  A    between atoms: C_44  and  C_45 
REMARK   16  A    between atoms: C_45  and  O_47 
ROOT
HETATM    1  C   UNK     0       2.982  10.907  22.471  0.00  0.00     0.051 C 
HETATM    2  C   UNK     0       3.512   9.627  23.084  0.00  0.00    -0.031 A 
HETATM    3  C   UNK     0       3.070   8.938  24.202  0.00  0.00     0.021 A 
HETATM    4  N   UNK     0       3.864   7.859  24.399  0.00  0.00    -0.361 N 
HETATM    5  C   UNK     0       4.798   7.840  23.425  0.00  0.00     0.022 A 
HETATM    6  C   UNK     0       4.609   8.934  22.587  0.00  0.00    -0.027 A 
HETATM    7  C   UNK     0       5.850   6.816  23.135  0.00  0.00     0.115 C 
HETATM    8  C   UNK     0       5.430   5.360  23.237  0.00  0.00     0.021 A 
HETATM    9  N   UNK     0       4.250   4.806  22.919  0.00  0.00    -0.361 N 
HETATM   10  C   UNK     0       4.295   3.500  23.259  0.00  0.00     0.022 A 
HETATM   11  C   UNK     0       5.541   3.204  23.804  0.00  0.00    -0.027 A 
HETATM   12  C   UNK     0       6.261   4.371  23.792  0.00  0.00    -0.031 A 
HETATM   13  C   UNK     0       7.682   4.526  24.287  0.00  0.00     0.051 C 
HETATM   14  C   UNK     0       3.152   2.497  23.136  0.00  0.00     0.115 C 
HETATM   15  C   UNK     0       1.922   2.861  23.953  0.00  0.00     0.021 A 
HETATM   16  N   UNK     0       1.182   3.982  23.869  0.00  0.00    -0.361 N 
HETATM   17  C   UNK     0       0.231   3.951  24.805  0.00  0.00     0.022 A 
HETATM   18  C   UNK     0       0.352   2.748  25.528  0.00  0.00    -0.027 A 
HETATM   19  C   UNK     0       1.413   2.073  24.983  0.00  0.00    -0.031 A 
HETATM   20  C   UNK     0       1.869   0.701  25.447  0.00  0.00     0.051 C 
HETATM   21  C   UNK     0      -0.804   4.990  25.173  0.00  0.00     0.115 C 
HETATM   22  C   UNK     0      -0.415   6.443  25.034  0.00  0.00     0.022 A 
HETATM   23  N   UNK     0       0.754   7.022  25.339  0.00  0.00    -0.361 N 
HETATM   24  C   UNK     0       0.714   8.302  24.920  0.00  0.00     0.021 A 
HETATM   25  C   UNK     0      -0.513   8.557  24.340  0.00  0.00    -0.031 A 
HETATM   26  C   UNK     0      -1.044   9.852  23.761  0.00  0.00     0.051 C 
HETATM   27  C   UNK     0      -1.254   7.382  24.402  0.00  0.00    -0.027 A 
HETATM   28  C   UNK     0       1.833   9.329  24.961  0.00  0.00     0.115 C 
HETATM   29  H   UNK     0       3.784   7.140  25.247  0.00  0.00     0.165 HD
HETATM   30  H   UNK     0       3.401   5.322  22.407  0.00  0.00     0.165 HD
HETATM   31  H   UNK     0       1.303   4.791  23.102  0.00  0.00     0.165 HD
HETATM   32  H   UNK     0       1.603   6.543  25.893  0.00  0.00     0.165 HD
ENDROOT
BRANCH   6  33
HETATM   33  C   UNK     0       5.382   9.367  21.367  0.00  0.00     0.051 C 
BRANCH  33  34
HETATM   34  C   UNK     0       4.580   9.123  20.111  0.00  0.00     0.114 C 
BRANCH  34  35
HETATM   35  C   UNK     0       5.025  10.122  19.097  0.00  0.00     0.139 C 
HETATM   36  O   UNK     0       4.778  11.352  19.264  0.00  0.00    -0.650 OA
BRANCH  35  37
HETATM   37  O   UNK     0       5.717   9.765  17.946  0.00  0.00    -0.776 OA
HETATM   38  H   UNK     0       6.172  10.448  17.362  0.00  0.00     0.167 HD
ENDBRANCH  35  37
ENDBRANCH  34  35
ENDBRANCH  33  34
ENDBRANCH   6  33
BRANCH  27  39
HETATM   39  C   UNK     0      -2.664   7.287  23.936  0.00  0.00     0.051 C 
BRANCH  39  40
HETATM   40  C   UNK     0      -2.921   6.723  22.611  0.00  0.00     0.114 C 
BRANCH  40  41
HETATM   41  C   UNK     0      -3.303   7.545  21.485  0.00  0.00     0.139 C 
HETATM   42  O   UNK     0      -4.453   7.971  21.308  0.00  0.00    -0.650 OA
BRANCH  41  43
HETATM   43  O   UNK     0      -2.318   7.894  20.517  0.00  0.00    -0.776 OA
HETATM   44  H   UNK     0      -1.450   7.379  20.600  0.00  0.00     0.167 HD
ENDBRANCH  41  43
ENDBRANCH  40  41
ENDBRANCH  39  40
ENDBRANCH  27  39
BRANCH  11  45
HETATM   45  C   UNK     0       6.055   1.885  24.316  0.00  0.00     0.051 C 
BRANCH  45  46
HETATM   46  C   UNK     0       6.176   0.835  23.273  0.00  0.00     0.114 C 
BRANCH  46  47
HETATM   47  C   UNK     0       5.974  -0.481  23.945  0.00  0.00     0.139 C 
HETATM   48  O   UNK     0       6.968  -1.088  24.367  0.00  0.00    -0.650 OA
BRANCH  47  49
HETATM   49  O   UNK     0       4.717  -1.009  24.093  0.00  0.00    -0.776 OA
HETATM   50  H   UNK     0       4.075  -0.690  24.828  0.00  0.00     0.167 HD
ENDBRANCH  47  49
ENDBRANCH  46  47
ENDBRANCH  45  46
ENDBRANCH  11  45
BRANCH  18  51
HETATM   51  C   UNK     0      -0.512   2.258  26.661  0.00  0.00     0.051 C 
BRANCH  51  52
HETATM   52  C   UNK     0      -1.658   1.488  26.022  0.00  0.00     0.114 C 
BRANCH  52  53
HETATM   53  C   UNK     0      -1.532   0.034  26.237  0.00  0.00     0.139 C 
HETATM   54  O   UNK     0      -1.389  -0.728  25.268  0.00  0.00    -0.650 OA
BRANCH  53  55
HETATM   55  O   UNK     0      -1.576  -0.470  27.515  0.00  0.00    -0.776 OA
HETATM   56  H   UNK     0      -1.494  -1.427  27.768  0.00  0.00     0.167 HD
ENDBRANCH  53  55
ENDBRANCH  52  53
ENDBRANCH  51  52
ENDBRANCH  18  51
TORSDOF 16
ENDMDL
