MODEL 1
REMARK VINA RESULT:      -7.9      0.000      0.000
REMARK  28 active torsions:
REMARK  status: ('A' for Active; 'I' for Inactive)
REMARK    1  A    between atoms: C_2  and  O_3 
REMARK    2  A    between atoms: C_2  and  C_4 
REMARK    3  A    between atoms: C_4  and  C_5 
REMARK    4  A    between atoms: C_5  and  C_6 
REMARK    5  A    between atoms: C_7  and  C_8 
REMARK    6  A    between atoms: C_8  and  C_9 
REMARK    7  A    between atoms: C_9  and  O_11 
REMARK    8  A    between atoms: C_28  and  C_29 
REMARK    9  A    between atoms: C_29  and  C_30 
REMARK   10  A    between atoms: C_30  and  O_32 
REMARK   11  A    between atoms: C_33  and  C_34 
REMARK   12  A    between atoms: C_34  and  C_35 
REMARK   13  A    between atoms: C_35  and  C_36 
REMARK   14  A    between atoms: C_36  and  O_38 
REMARK   15  A    between atoms: C_39  and  C_40 
REMARK   16  A    between atoms: C_40  and  C_41 
REMARK   17  A    between atoms: C_41  and  C_42 
REMARK   18  A    between atoms: C_42  and  O_44 
REMARK   19  A    between atoms: C_45  and  C_46 
REMARK   20  A    between atoms: C_46  and  C_47 
REMARK   21  A    between atoms: C_47  and  O_49 
REMARK   22  A    between atoms: C_50  and  C_51 
REMARK   23  A    between atoms: C_51  and  C_52 
REMARK   24  A    between atoms: C_52  and  O_54 
REMARK   25  A    between atoms: C_55  and  C_56 
REMARK   26  A    between atoms: C_56  and  C_57 
REMARK   27  A    between atoms: C_57  and  C_58 
REMARK   28  A    between atoms: C_58  and  O_60 
ROOT
ATOM      1  O   UNK d   0       2.161  10.953 -32.226  0.00  0.00    -0.650 OA
ATOM      2  C   UNK d   0       1.963   9.728 -32.383  0.00  0.00     0.139 C 
ENDROOT
BRANCH   2   3
ATOM      3  O   UNK d   0       2.898   8.831 -31.924  0.00  0.00    -0.776 OA
ATOM      4  H   UNK d   0       2.970   8.606 -30.930  0.00  0.00     0.167 HD
ENDBRANCH   2   3
BRANCH   2   5
ATOM      5  C   UNK d   0       0.725   9.250 -33.061  0.00  0.00     0.115 C 
BRANCH   5   6
ATOM      6  C   UNK d   0       0.984   9.050 -34.530  0.00  0.00     0.052 C 
BRANCH   6   7
ATOM      7  C   UNK d   0      -0.079   8.213 -35.199  0.00  0.00    -0.020 A 
ATOM      8  C   UNK d   0       0.027   6.981 -35.628  0.00  0.00    -0.011 A 
ATOM      9  C   UNK d   0      -1.251   6.600 -36.206  0.00  0.00     0.067 A 
ATOM     10  C   UNK d   0      -1.789   5.448 -36.801  0.00  0.00     0.062 C 
ATOM     11  N   UNK d   0      -2.075   7.662 -36.093  0.00  0.00    -0.248 NA
ATOM     12  C   UNK d   0      -3.139   5.176 -37.050  0.00  0.00     0.041 A 
ATOM     13  N   UNK d   0      -4.126   5.954 -37.534  0.00  0.00    -0.355 N 
ATOM     14  C   UNK d   0      -3.650   3.908 -36.718  0.00  0.00    -0.022 A 
ATOM     15  C   UNK d   0      -5.251   5.215 -37.508  0.00  0.00     0.042 A 
ATOM     16  H   UNK d   0      -4.025   6.998 -37.903  0.00  0.00     0.166 HD
ATOM     17  C   UNK d   0      -6.565   5.539 -37.901  0.00  0.00     0.062 C 
ATOM     18  C   UNK d   0      -4.993   3.927 -37.003  0.00  0.00    -0.013 A 
ATOM     19  C   UNK d   0      -7.285   6.679 -37.646  0.00  0.00     0.067 A 
ATOM     20  N   UNK d   0      -6.618   7.713 -37.130  0.00  0.00    -0.248 NA
ATOM     21  C   UNK d   0      -8.673   7.089 -37.781  0.00  0.00    -0.011 A 
ATOM     22  C   UNK d   0      -7.468   8.770 -36.916  0.00  0.00     0.066 A 
ATOM     23  C   UNK d   0      -6.896   9.930 -36.415  0.00  0.00     0.062 C 
ATOM     24  C   UNK d   0      -8.774   8.313 -37.348  0.00  0.00    -0.020 A 
ATOM     25  C   UNK d   0      -5.536  10.188 -36.184  0.00  0.00     0.041 A 
ATOM     26  N   UNK d   0      -4.558   9.420 -35.689  0.00  0.00    -0.355 N 
ATOM     27  C   UNK d   0      -5.023  11.459 -36.522  0.00  0.00    -0.022 A 
ATOM     28  C   UNK d   0      -3.436  10.157 -35.705  0.00  0.00     0.042 A 
ATOM     29  H   UNK d   0      -4.663   8.374 -35.308  0.00  0.00     0.166 HD
ATOM     30  C   UNK d   0      -2.125   9.850 -35.309  0.00  0.00     0.062 C 
ATOM     31  C   UNK d   0      -3.695  11.448 -36.224  0.00  0.00    -0.013 A 
ATOM     32  C   UNK d   0      -1.430   8.665 -35.495  0.00  0.00     0.066 A 
BRANCH   8  33
ATOM     33  C   UNK d   0       1.220   6.118 -35.552  0.00  0.00     0.151 C 
BRANCH  33  34
ATOM     34  C   UNK d   0       1.977   6.080 -36.816  0.00  0.00     0.143 C 
ATOM     35  O   UNK d   0       2.519   7.100 -37.265  0.00  0.00    -0.650 OA
BRANCH  34  36
ATOM     36  O   UNK d   0       2.081   4.894 -37.506  0.00  0.00    -0.776 OA
ATOM     37  H   UNK d   0       2.026   4.867 -38.534  0.00  0.00     0.167 HD
ENDBRANCH  34  36
ENDBRANCH  33  34
ENDBRANCH   8  33
BRANCH  31  38
ATOM     38  C   UNK d   0      -2.725  12.588 -36.429  0.00  0.00     0.151 C 
BRANCH  38  39
ATOM     39  C   UNK d   0      -1.959  12.461 -37.651  0.00  0.00     0.143 C 
ATOM     40  O   UNK d   0      -2.498  12.368 -38.768  0.00  0.00    -0.650 OA
BRANCH  39  41
ATOM     41  O   UNK d   0      -0.566  12.440 -37.588  0.00  0.00    -0.776 OA
ATOM     42  H   UNK d   0      -0.086  11.787 -38.216  0.00  0.00     0.167 HD
ENDBRANCH  39  41
ENDBRANCH  38  39
ENDBRANCH  31  38
BRANCH  27  43
ATOM     43  C   UNK d   0      -5.733  12.656 -37.104  0.00  0.00     0.052 C 
BRANCH  43  44
ATOM     44  C   UNK d   0      -6.643  13.333 -36.130  0.00  0.00     0.115 C 
BRANCH  44  45
ATOM     45  C   UNK d   0      -7.889  13.661 -36.872  0.00  0.00     0.139 C 
ATOM     46  O   UNK d   0      -8.060  13.139 -38.001  0.00  0.00    -0.650 OA
BRANCH  45  47
ATOM     47  O   UNK d   0      -8.857  14.503 -36.369  0.00  0.00    -0.776 OA
ATOM     48  H   UNK d   0      -9.660  14.831 -36.931  0.00  0.00     0.167 HD
ENDBRANCH  45  47
ENDBRANCH  44  45
ENDBRANCH  43  44
ENDBRANCH  27  43
BRANCH  24  49
ATOM     49  C   UNK d   0      -9.998   9.133 -37.339  0.00  0.00     0.052 C 
BRANCH  49  50
ATOM     50  C   UNK d   0     -10.812   8.845 -36.104  0.00  0.00     0.115 C 
BRANCH  50  51
ATOM     51  C   UNK d   0     -10.247   9.252 -34.824  0.00  0.00     0.139 C 
ATOM     52  O   UNK d   0      -9.893  10.431 -34.586  0.00  0.00    -0.650 OA
BRANCH  51  53
ATOM     53  O   UNK d   0     -10.082   8.314 -33.817  0.00  0.00    -0.776 OA
ATOM     54  H   UNK d   0      -9.369   7.614 -33.931  0.00  0.00     0.167 HD
ENDBRANCH  51  53
ENDBRANCH  50  51
ENDBRANCH  49  50
ENDBRANCH  24  49
BRANCH  21  55
ATOM     55  C   UNK d   0      -9.752   6.217 -38.332  0.00  0.00     0.151 C 
BRANCH  55  56
ATOM     56  C   UNK d   0     -10.101   5.124 -37.412  0.00  0.00     0.143 C 
ATOM     57  O   UNK d   0     -10.425   3.987 -37.808  0.00  0.00    -0.650 OA
BRANCH  56  58
ATOM     58  O   UNK d   0     -10.063   5.389 -36.044  0.00  0.00    -0.776 OA
ATOM     59  H   UNK d   0      -9.410   6.143 -35.764  0.00  0.00     0.167 HD
ENDBRANCH  56  58
ENDBRANCH  55  56
ENDBRANCH  21  55
BRANCH  18  60
ATOM     60  C   UNK d   0      -5.938   2.771 -36.790  0.00  0.00     0.151 C 
BRANCH  60  61
ATOM     61  C   UNK d   0      -6.782   3.144 -35.645  0.00  0.00     0.143 C 
ATOM     62  O   UNK d   0      -6.405   3.582 -34.557  0.00  0.00    -0.650 OA
BRANCH  61  63
ATOM     63  O   UNK d   0      -8.173   2.974 -35.841  0.00  0.00    -0.776 OA
ATOM     64  H   UNK d   0      -8.714   2.382 -35.235  0.00  0.00     0.167 HD
ENDBRANCH  61  63
ENDBRANCH  60  61
ENDBRANCH  18  60
BRANCH  14  65
ATOM     65  C   UNK d   0      -2.954   2.662 -36.248  0.00  0.00     0.052 C 
BRANCH  65  66
ATOM     66  C   UNK d   0      -3.064   2.453 -34.779  0.00  0.00     0.115 C 
BRANCH  66  67
ATOM     67  C   UNK d   0      -2.962   3.576 -33.891  0.00  0.00     0.139 C 
ATOM     68  O   UNK d   0      -1.802   3.894 -33.434  0.00  0.00    -0.650 OA
BRANCH  67  69
ATOM     69  O   UNK d   0      -3.990   4.401 -33.437  0.00  0.00    -0.776 OA
ATOM     70  H   UNK d   0      -4.877   4.338 -33.956  0.00  0.00     0.167 HD
ENDBRANCH  67  69
ENDBRANCH  66  67
ENDBRANCH  65  66
ENDBRANCH  14  65
ENDBRANCH   6   7
ENDBRANCH   5   6
ENDBRANCH   2   5
TORSDOF 28
ENDMDL
MODEL 2
REMARK VINA RESULT:      -7.8      1.468      1.826
REMARK  28 active torsions:
REMARK  status: ('A' for Active; 'I' for Inactive)
REMARK    1  A    between atoms: C_2  and  O_3 
REMARK    2  A    between atoms: C_2  and  C_4 
REMARK    3  A    between atoms: C_4  and  C_5 
REMARK    4  A    between atoms: C_5  and  C_6 
REMARK    5  A    between atoms: C_7  and  C_8 
REMARK    6  A    between atoms: C_8  and  C_9 
REMARK    7  A    between atoms: C_9  and  O_11 
REMARK    8  A    between atoms: C_28  and  C_29 
REMARK    9  A    between atoms: C_29  and  C_30 
REMARK   10  A    between atoms: C_30  and  O_32 
REMARK   11  A    between atoms: C_33  and  C_34 
REMARK   12  A    between atoms: C_34  and  C_35 
REMARK   13  A    between atoms: C_35  and  C_36 
REMARK   14  A    between atoms: C_36  and  O_38 
REMARK   15  A    between atoms: C_39  and  C_40 
REMARK   16  A    between atoms: C_40  and  C_41 
REMARK   17  A    between atoms: C_41  and  C_42 
REMARK   18  A    between atoms: C_42  and  O_44 
REMARK   19  A    between atoms: C_45  and  C_46 
REMARK   20  A    between atoms: C_46  and  C_47 
REMARK   21  A    between atoms: C_47  and  O_49 
REMARK   22  A    between atoms: C_50  and  C_51 
REMARK   23  A    between atoms: C_51  and  C_52 
REMARK   24  A    between atoms: C_52  and  O_54 
REMARK   25  A    between atoms: C_55  and  C_56 
REMARK   26  A    between atoms: C_56  and  C_57 
REMARK   27  A    between atoms: C_57  and  C_58 
REMARK   28  A    between atoms: C_58  and  O_60 
ROOT
ATOM      1  O   UNK d   0       3.223   8.952 -31.417  0.00  0.00    -0.650 OA
ATOM      2  C   UNK d   0       2.683   9.891 -32.045  0.00  0.00     0.139 C 
ENDROOT
BRANCH   2   3
ATOM      3  O   UNK d   0       3.316  11.109 -32.110  0.00  0.00    -0.776 OA
ATOM      4  H   UNK d   0       4.262  11.192 -32.489  0.00  0.00     0.167 HD
ENDBRANCH   2   3
BRANCH   2   5
ATOM      5  C   UNK d   0       1.366   9.685 -32.712  0.00  0.00     0.115 C 
BRANCH   5   6
ATOM      6  C   UNK d   0       1.542   9.656 -34.206  0.00  0.00     0.052 C 
BRANCH   6   7
ATOM      7  C   UNK d   0       0.627   8.661 -34.880  0.00  0.00    -0.020 A 
ATOM      8  C   UNK d   0       0.912   7.440 -35.253  0.00  0.00    -0.011 A 
ATOM      9  C   UNK d   0      -0.278   6.872 -35.863  0.00  0.00     0.067 A 
ATOM     10  C   UNK d   0      -0.635   5.639 -36.430  0.00  0.00     0.062 C 
ATOM     11  N   UNK d   0      -1.239   7.819 -35.824  0.00  0.00    -0.248 NA
ATOM     12  C   UNK d   0      -1.926   5.181 -36.719  0.00  0.00     0.041 A 
ATOM     13  N   UNK d   0      -2.985   5.803 -37.269  0.00  0.00    -0.355 N 
ATOM     14  C   UNK d   0      -2.279   3.869 -36.354  0.00  0.00    -0.022 A 
ATOM     15  C   UNK d   0      -4.004   4.923 -37.256  0.00  0.00     0.042 A 
ATOM     16  H   UNK d   0      -3.007   6.838 -37.677  0.00  0.00     0.166 HD
ATOM     17  C   UNK d   0      -5.331   5.055 -37.710  0.00  0.00     0.062 C 
ATOM     18  C   UNK d   0      -3.599   3.699 -36.689  0.00  0.00    -0.013 A 
ATOM     19  C   UNK d   0      -6.205   6.097 -37.529  0.00  0.00     0.067 A 
ATOM     20  N   UNK d   0      -5.701   7.229 -37.031  0.00  0.00    -0.248 NA
ATOM     21  C   UNK d   0      -7.627   6.315 -37.732  0.00  0.00    -0.011 A 
ATOM     22  C   UNK d   0      -6.691   8.171 -36.892  0.00  0.00     0.066 A 
ATOM     23  C   UNK d   0      -6.298   9.413 -36.418  0.00  0.00     0.062 C 
ATOM     24  C   UNK d   0      -7.907   7.528 -37.353  0.00  0.00    -0.020 A 
ATOM     25  C   UNK d   0      -4.995   9.858 -36.146  0.00  0.00     0.041 A 
ATOM     26  N   UNK d   0      -3.946   9.244 -35.585  0.00  0.00    -0.355 N 
ATOM     27  C   UNK d   0      -4.639  11.173 -36.517  0.00  0.00    -0.022 A 
ATOM     28  C   UNK d   0      -2.931  10.122 -35.589  0.00  0.00     0.042 A 
ATOM     29  H   UNK d   0      -3.929   8.208 -35.166  0.00  0.00     0.166 HD
ATOM     30  C   UNK d   0      -1.609  10.007 -35.133  0.00  0.00     0.062 C 
ATOM     31  C   UNK d   0      -3.335  11.349 -36.169  0.00  0.00    -0.013 A 
ATOM     32  C   UNK d   0      -0.758   8.919 -35.244  0.00  0.00     0.066 A 
BRANCH   8  33
ATOM     33  C   UNK d   0       2.204   6.746 -35.099  0.00  0.00     0.151 C 
BRANCH  33  34
ATOM     34  C   UNK d   0       3.175   7.107 -36.148  0.00  0.00     0.143 C 
ATOM     35  O   UNK d   0       2.816   7.249 -37.325  0.00  0.00    -0.650 OA
BRANCH  34  36
ATOM     36  O   UNK d   0       4.497   7.288 -35.811  0.00  0.00    -0.776 OA
ATOM     37  H   UNK d   0       5.067   8.018 -36.258  0.00  0.00     0.167 HD
ENDBRANCH  34  36
ENDBRANCH  33  34
ENDBRANCH   8  33
BRANCH  31  38
ATOM     38  C   UNK d   0      -2.516  12.600 -36.384  0.00  0.00     0.151 C 
BRANCH  38  39
ATOM     39  C   UNK d   0      -1.779  12.581 -37.630  0.00  0.00     0.143 C 
ATOM     40  O   UNK d   0      -2.302  12.884 -38.717  0.00  0.00    -0.650 OA
BRANCH  39  41
ATOM     41  O   UNK d   0      -0.434  12.213 -37.627  0.00  0.00    -0.776 OA
ATOM     42  H   UNK d   0       0.148  12.584 -38.384  0.00  0.00     0.167 HD
ENDBRANCH  39  41
ENDBRANCH  38  39
ENDBRANCH  31  38
BRANCH  27  43
ATOM     43  C   UNK d   0      -5.476  12.243 -37.173  0.00  0.00     0.052 C 
BRANCH  43  44
ATOM     44  C   UNK d   0      -6.345  12.986 -36.211  0.00  0.00     0.115 C 
BRANCH  44  45
ATOM     45  C   UNK d   0      -7.747  12.780 -36.660  0.00  0.00     0.139 C 
ATOM     46  O   UNK d   0      -7.946  12.496 -37.867  0.00  0.00    -0.650 OA
BRANCH  45  47
ATOM     47  O   UNK d   0      -8.827  12.884 -35.810  0.00  0.00    -0.776 OA
ATOM     48  H   UNK d   0      -9.721  12.395 -35.978  0.00  0.00     0.167 HD
ENDBRANCH  45  47
ENDBRANCH  44  45
ENDBRANCH  43  44
ENDBRANCH  27  43
BRANCH  24  49
ATOM     49  C   UNK d   0      -9.227   8.178 -37.423  0.00  0.00     0.052 C 
BRANCH  49  50
ATOM     50  C   UNK d   0      -9.996   7.941 -36.149  0.00  0.00     0.115 C 
BRANCH  50  51
ATOM     51  C   UNK d   0      -9.727   8.838 -35.033  0.00  0.00     0.139 C 
ATOM     52  O   UNK d   0      -9.552  10.071 -35.183  0.00  0.00    -0.650 OA
BRANCH  51  53
ATOM     53  O   UNK d   0      -9.655   8.330 -33.745  0.00  0.00    -0.776 OA
ATOM     54  H   UNK d   0      -9.485   7.346 -33.632  0.00  0.00     0.167 HD
ENDBRANCH  51  53
ENDBRANCH  50  51
ENDBRANCH  49  50
ENDBRANCH  24  49
BRANCH  21  55
ATOM     55  C   UNK d   0      -8.558   5.288 -38.287  0.00  0.00     0.151 C 
BRANCH  55  56
ATOM     56  C   UNK d   0      -8.824   4.207 -37.325  0.00  0.00     0.143 C 
ATOM     57  O   UNK d   0      -9.493   4.376 -36.287  0.00  0.00    -0.650 OA
BRANCH  56  58
ATOM     58  O   UNK d   0      -8.297   2.947 -37.604  0.00  0.00    -0.776 OA
ATOM     59  H   UNK d   0      -7.429   2.713 -37.088  0.00  0.00     0.167 HD
ENDBRANCH  56  58
ENDBRANCH  55  56
ENDBRANCH  21  55
BRANCH  18  60
ATOM     60  C   UNK d   0      -4.393   2.436 -36.464  0.00  0.00     0.151 C 
BRANCH  60  61
ATOM     61  C   UNK d   0      -4.618   1.858 -37.798  0.00  0.00     0.143 C 
ATOM     62  O   UNK d   0      -5.703   1.606 -38.324  0.00  0.00    -0.650 OA
BRANCH  61  63
ATOM     63  O   UNK d   0      -3.445   1.571 -38.537  0.00  0.00    -0.776 OA
ATOM     64  H   UNK d   0      -2.672   2.213 -38.551  0.00  0.00     0.167 HD
ENDBRANCH  61  63
ENDBRANCH  60  61
ENDBRANCH  18  60
BRANCH  14  65
ATOM     65  C   UNK d   0      -1.446   2.744 -35.808  0.00  0.00     0.052 C 
BRANCH  65  66
ATOM     66  C   UNK d   0      -1.144   2.894 -34.359  0.00  0.00     0.115 C 
BRANCH  66  67
ATOM     67  C   UNK d   0       0.186   3.236 -33.941  0.00  0.00     0.139 C 
ATOM     68  O   UNK d   0       1.179   2.773 -34.613  0.00  0.00    -0.650 OA
BRANCH  67  69
ATOM     69  O   UNK d   0       0.562   4.035 -32.861  0.00  0.00    -0.776 OA
ATOM     70  H   UNK d   0       0.804   5.010 -33.088  0.00  0.00     0.167 HD
ENDBRANCH  67  69
ENDBRANCH  66  67
ENDBRANCH  65  66
ENDBRANCH  14  65
ENDBRANCH   6   7
ENDBRANCH   5   6
ENDBRANCH   2   5
TORSDOF 28
ENDMDL
MODEL 3
REMARK VINA RESULT:      -7.6      2.361      7.754
REMARK  28 active torsions:
REMARK  status: ('A' for Active; 'I' for Inactive)
REMARK    1  A    between atoms: C_2  and  O_3 
REMARK    2  A    between atoms: C_2  and  C_4 
REMARK    3  A    between atoms: C_4  and  C_5 
REMARK    4  A    between atoms: C_5  and  C_6 
REMARK    5  A    between atoms: C_7  and  C_8 
REMARK    6  A    between atoms: C_8  and  C_9 
REMARK    7  A    between atoms: C_9  and  O_11 
REMARK    8  A    between atoms: C_28  and  C_29 
REMARK    9  A    between atoms: C_29  and  C_30 
REMARK   10  A    between atoms: C_30  and  O_32 
REMARK   11  A    between atoms: C_33  and  C_34 
REMARK   12  A    between atoms: C_34  and  C_35 
REMARK   13  A    between atoms: C_35  and  C_36 
REMARK   14  A    between atoms: C_36  and  O_38 
REMARK   15  A    between atoms: C_39  and  C_40 
REMARK   16  A    between atoms: C_40  and  C_41 
REMARK   17  A    between atoms: C_41  and  C_42 
REMARK   18  A    between atoms: C_42  and  O_44 
REMARK   19  A    between atoms: C_45  and  C_46 
REMARK   20  A    between atoms: C_46  and  C_47 
REMARK   21  A    between atoms: C_47  and  O_49 
REMARK   22  A    between atoms: C_50  and  C_51 
REMARK   23  A    between atoms: C_51  and  C_52 
REMARK   24  A    between atoms: C_52  and  O_54 
REMARK   25  A    between atoms: C_55  and  C_56 
REMARK   26  A    between atoms: C_56  and  C_57 
REMARK   27  A    between atoms: C_57  and  C_58 
REMARK   28  A    between atoms: C_58  and  O_60 
ROOT
ATOM      1  O   UNK d   0      -2.059  -1.220 -39.223  0.00  0.00    -0.650 OA
ATOM      2  C   UNK d   0      -2.632  -0.412 -39.988  0.00  0.00     0.139 C 
ENDROOT
BRANCH   2   3
ATOM      3  O   UNK d   0      -3.205  -0.875 -41.148  0.00  0.00    -0.776 OA
ATOM      4  H   UNK d   0      -2.637  -1.072 -41.975  0.00  0.00     0.167 HD
ENDBRANCH   2   3
BRANCH   2   5
ATOM      5  C   UNK d   0      -2.689   1.036 -39.641  0.00  0.00     0.115 C 
BRANCH   5   6
ATOM      6  C   UNK d   0      -3.287   1.217 -38.272  0.00  0.00     0.052 C 
BRANCH   6   7
ATOM      7  C   UNK d   0      -2.753   2.437 -37.561  0.00  0.00    -0.020 A 
ATOM      8  C   UNK d   0      -1.698   2.514 -36.791  0.00  0.00    -0.011 A 
ATOM      9  C   UNK d   0      -1.585   3.886 -36.326  0.00  0.00     0.067 A 
ATOM     10  C   UNK d   0      -0.696   4.612 -35.518  0.00  0.00     0.062 C 
ATOM     11  N   UNK d   0      -2.617   4.575 -36.857  0.00  0.00    -0.248 NA
ATOM     12  C   UNK d   0      -0.594   6.003 -35.407  0.00  0.00     0.041 A 
ATOM     13  N   UNK d   0      -1.541   6.956 -35.317  0.00  0.00    -0.355 N 
ATOM     14  C   UNK d   0       0.680   6.597 -35.441  0.00  0.00    -0.022 A 
ATOM     15  C   UNK d   0      -0.901   8.140 -35.301  0.00  0.00     0.042 A 
ATOM     16  H   UNK d   0      -2.639   6.794 -35.246  0.00  0.00     0.166 HD
ATOM     17  C   UNK d   0      -1.408   9.452 -35.217  0.00  0.00     0.062 C 
ATOM     18  C   UNK d   0       0.493   7.956 -35.378  0.00  0.00    -0.013 A 
ATOM     19  C   UNK d   0      -2.465  10.012 -35.888  0.00  0.00     0.067 A 
ATOM     20  N   UNK d   0      -3.258   9.181 -36.569  0.00  0.00    -0.248 NA
ATOM     21  C   UNK d   0      -2.984  11.356 -36.085  0.00  0.00    -0.011 A 
ATOM     22  C   UNK d   0      -4.257   9.884 -37.198  0.00  0.00     0.066 A 
ATOM     23  C   UNK d   0      -5.179   9.136 -37.915  0.00  0.00     0.062 C 
ATOM     24  C   UNK d   0      -4.030  11.274 -36.855  0.00  0.00    -0.020 A 
ATOM     25  C   UNK d   0      -5.271   7.738 -38.003  0.00  0.00     0.041 A 
ATOM     26  N   UNK d   0      -4.331   6.792 -38.108  0.00  0.00    -0.355 N 
ATOM     27  C   UNK d   0      -6.551   7.142 -37.964  0.00  0.00    -0.022 A 
ATOM     28  C   UNK d   0      -4.968   5.610 -38.133  0.00  0.00     0.042 A 
ATOM     29  H   UNK d   0      -3.228   6.956 -38.189  0.00  0.00     0.166 HD
ATOM     30  C   UNK d   0      -4.476   4.298 -38.225  0.00  0.00     0.062 C 
ATOM     31  C   UNK d   0      -6.368   5.796 -38.045  0.00  0.00    -0.013 A 
ATOM     32  C   UNK d   0      -3.357   3.760 -37.610  0.00  0.00     0.066 A 
BRANCH   8  33
ATOM     33  C   UNK d   0      -0.777   1.417 -36.440  0.00  0.00     0.151 C 
BRANCH  33  34
ATOM     34  C   UNK d   0      -1.277   0.584 -35.331  0.00  0.00     0.143 C 
ATOM     35  O   UNK d   0      -1.609  -0.595 -35.520  0.00  0.00    -0.650 OA
BRANCH  34  36
ATOM     36  O   UNK d   0      -1.379   1.127 -34.071  0.00  0.00    -0.776 OA
ATOM     37  H   UNK d   0      -1.216   0.558 -33.229  0.00  0.00     0.167 HD
ENDBRANCH  34  36
ENDBRANCH  33  34
ENDBRANCH   8  33
BRANCH  31  38
ATOM     38  C   UNK d   0      -7.454   4.746 -38.027  0.00  0.00     0.151 C 
BRANCH  38  39
ATOM     39  C   UNK d   0      -8.061   4.544 -39.325  0.00  0.00     0.143 C 
ATOM     40  O   UNK d   0      -9.228   4.894 -39.577  0.00  0.00    -0.650 OA
BRANCH  39  41
ATOM     41  O   UNK d   0      -7.323   3.936 -40.341  0.00  0.00    -0.776 OA
ATOM     42  H   UNK d   0      -7.084   2.948 -40.210  0.00  0.00     0.167 HD
ENDBRANCH  39  41
ENDBRANCH  38  39
ENDBRANCH  31  38
BRANCH  27  43
ATOM     43  C   UNK d   0      -7.908   7.792 -37.858  0.00  0.00     0.052 C 
BRANCH  43  44
ATOM     44  C   UNK d   0      -8.354   7.999 -36.447  0.00  0.00     0.115 C 
BRANCH  44  45
ATOM     45  C   UNK d   0      -8.501   9.466 -36.260  0.00  0.00     0.139 C 
ATOM     46  O   UNK d   0      -8.644  10.182 -37.282  0.00  0.00    -0.650 OA
BRANCH  45  47
ATOM     47  O   UNK d   0      -8.492  10.065 -35.019  0.00  0.00    -0.776 OA
ATOM     48  H   UNK d   0      -7.812   9.817 -34.282  0.00  0.00     0.167 HD
ENDBRANCH  45  47
ENDBRANCH  44  45
ENDBRANCH  43  44
ENDBRANCH  27  43
BRANCH  24  49
ATOM     49  C   UNK d   0      -4.886  12.395 -37.279  0.00  0.00     0.052 C 
BRANCH  49  50
ATOM     50  C   UNK d   0      -5.896  12.718 -36.207  0.00  0.00     0.115 C 
BRANCH  50  51
ATOM     51  C   UNK d   0      -7.235  13.087 -36.645  0.00  0.00     0.139 C 
ATOM     52  O   UNK d   0      -7.468  13.565 -37.780  0.00  0.00    -0.650 OA
BRANCH  51  53
ATOM     53  O   UNK d   0      -8.310  12.914 -35.786  0.00  0.00    -0.776 OA
ATOM     54  H   UNK d   0      -8.621  13.704 -35.249  0.00  0.00     0.167 HD
ENDBRANCH  51  53
ENDBRANCH  50  51
ENDBRANCH  49  50
ENDBRANCH  24  49
BRANCH  21  55
ATOM     55  C   UNK d   0      -2.383  12.580 -35.478  0.00  0.00     0.151 C 
BRANCH  55  56
ATOM     56  C   UNK d   0      -1.396  13.209 -36.369  0.00  0.00     0.143 C 
ATOM     57  O   UNK d   0      -0.830  12.592 -37.292  0.00  0.00    -0.650 OA
BRANCH  56  58
ATOM     58  O   UNK d   0      -1.093  14.553 -36.156  0.00  0.00    -0.776 OA
ATOM     59  H   UNK d   0      -0.166  14.730 -35.728  0.00  0.00     0.167 HD
ENDBRANCH  56  58
ENDBRANCH  55  56
ENDBRANCH  21  55
BRANCH  18  60
ATOM     60  C   UNK d   0       1.599   8.982 -35.394  0.00  0.00     0.151 C 
BRANCH  60  61
ATOM     61  C   UNK d   0       2.149   9.006 -34.030  0.00  0.00     0.143 C 
ATOM     62  O   UNK d   0       1.526   9.177 -32.982  0.00  0.00    -0.650 OA
BRANCH  61  63
ATOM     63  O   UNK d   0       3.548   8.808 -33.941  0.00  0.00    -0.776 OA
ATOM     64  H   UNK d   0       4.105   9.331 -33.289  0.00  0.00     0.167 HD
ENDBRANCH  61  63
ENDBRANCH  60  61
ENDBRANCH  18  60
BRANCH  14  65
ATOM     65  C   UNK d   0       2.050   5.981 -35.430  0.00  0.00     0.052 C 
BRANCH  65  66
ATOM     66  C   UNK d   0       2.681   5.941 -36.777  0.00  0.00     0.115 C 
BRANCH  66  67
ATOM     67  C   UNK d   0       1.949   5.406 -37.890  0.00  0.00     0.139 C 
ATOM     68  O   UNK d   0       1.566   4.180 -37.839  0.00  0.00    -0.650 OA
BRANCH  67  69
ATOM     69  O   UNK d   0       1.584   6.061 -39.066  0.00  0.00    -0.776 OA
ATOM     70  H   UNK d   0       0.648   5.837 -39.431  0.00  0.00     0.167 HD
ENDBRANCH  67  69
ENDBRANCH  66  67
ENDBRANCH  65  66
ENDBRANCH  14  65
ENDBRANCH   6   7
ENDBRANCH   5   6
ENDBRANCH   2   5
TORSDOF 28
ENDMDL
MODEL 4
REMARK VINA RESULT:      -7.5      2.200      7.630
REMARK  28 active torsions:
REMARK  status: ('A' for Active; 'I' for Inactive)
REMARK    1  A    between atoms: C_2  and  O_3 
REMARK    2  A    between atoms: C_2  and  C_4 
REMARK    3  A    between atoms: C_4  and  C_5 
REMARK    4  A    between atoms: C_5  and  C_6 
REMARK    5  A    between atoms: C_7  and  C_8 
REMARK    6  A    between atoms: C_8  and  C_9 
REMARK    7  A    between atoms: C_9  and  O_11 
REMARK    8  A    between atoms: C_28  and  C_29 
REMARK    9  A    between atoms: C_29  and  C_30 
REMARK   10  A    between atoms: C_30  and  O_32 
REMARK   11  A    between atoms: C_33  and  C_34 
REMARK   12  A    between atoms: C_34  and  C_35 
REMARK   13  A    between atoms: C_35  and  C_36 
REMARK   14  A    between atoms: C_36  and  O_38 
REMARK   15  A    between atoms: C_39  and  C_40 
REMARK   16  A    between atoms: C_40  and  C_41 
REMARK   17  A    between atoms: C_41  and  C_42 
REMARK   18  A    between atoms: C_42  and  O_44 
REMARK   19  A    between atoms: C_45  and  C_46 
REMARK   20  A    between atoms: C_46  and  C_47 
REMARK   21  A    between atoms: C_47  and  O_49 
REMARK   22  A    between atoms: C_50  and  C_51 
REMARK   23  A    between atoms: C_51  and  C_52 
REMARK   24  A    between atoms: C_52  and  O_54 
REMARK   25  A    between atoms: C_55  and  C_56 
REMARK   26  A    between atoms: C_56  and  C_57 
REMARK   27  A    between atoms: C_57  and  C_58 
REMARK   28  A    between atoms: C_58  and  O_60 
ROOT
ATOM      1  O   UNK d   0      -2.857   1.218 -38.932  0.00  0.00    -0.650 OA
ATOM      2  C   UNK d   0      -3.065   0.491 -37.935  0.00  0.00     0.139 C 
ENDROOT
BRANCH   2   3
ATOM      3  O   UNK d   0      -2.174  -0.511 -37.635  0.00  0.00    -0.776 OA
ATOM      4  H   UNK d   0      -1.993  -0.783 -36.666  0.00  0.00     0.167 HD
ENDBRANCH   2   3
BRANCH   2   5
ATOM      5  C   UNK d   0      -4.268   0.714 -37.085  0.00  0.00     0.115 C 
BRANCH   5   6
ATOM      6  C   UNK d   0      -3.865   0.842 -35.641  0.00  0.00     0.052 C 
BRANCH   6   7
ATOM      7  C   UNK d   0      -3.108   2.118 -35.360  0.00  0.00    -0.020 A 
ATOM      8  C   UNK d   0      -1.911   2.239 -34.846  0.00  0.00    -0.011 A 
ATOM      9  C   UNK d   0      -1.606   3.657 -34.757  0.00  0.00     0.067 A 
ATOM     10  C   UNK d   0      -0.517   4.434 -34.332  0.00  0.00     0.062 C 
ATOM     11  N   UNK d   0      -2.677   4.328 -35.232  0.00  0.00    -0.248 NA
ATOM     12  C   UNK d   0      -0.298   5.793 -34.581  0.00  0.00     0.041 A 
ATOM     13  N   UNK d   0      -1.135   6.848 -34.545  0.00  0.00    -0.355 N 
ATOM     14  C   UNK d   0       0.979   6.211 -34.999  0.00  0.00    -0.022 A 
ATOM     15  C   UNK d   0      -0.424   7.922 -34.938  0.00  0.00     0.042 A 
ATOM     16  H   UNK d   0      -2.202   6.836 -34.231  0.00  0.00     0.166 HD
ATOM     17  C   UNK d   0      -0.809   9.270 -35.078  0.00  0.00     0.062 C 
ATOM     18  C   UNK d   0       0.905   7.562 -35.231  0.00  0.00    -0.013 A 
ATOM     19  C   UNK d   0      -1.943   9.788 -35.651  0.00  0.00     0.067 A 
ATOM     20  N   UNK d   0      -2.918   8.926 -35.949  0.00  0.00    -0.248 NA
ATOM     21  C   UNK d   0      -2.396  11.106 -36.064  0.00  0.00    -0.011 A 
ATOM     22  C   UNK d   0      -3.976   9.584 -36.527  0.00  0.00     0.066 A 
ATOM     23  C   UNK d   0      -5.080   8.809 -36.853  0.00  0.00     0.062 C 
ATOM     24  C   UNK d   0      -3.585  10.979 -36.579  0.00  0.00    -0.020 A 
ATOM     25  C   UNK d   0      -5.286   7.448 -36.583  0.00  0.00     0.041 A 
ATOM     26  N   UNK d   0      -4.458   6.397 -36.632  0.00  0.00    -0.355 N 
ATOM     27  C   UNK d   0      -6.566   7.030 -36.159  0.00  0.00    -0.022 A 
ATOM     28  C   UNK d   0      -5.166   5.323 -36.250  0.00  0.00     0.042 A 
ATOM     29  H   UNK d   0      -3.389   6.409 -36.959  0.00  0.00     0.166 HD
ATOM     30  C   UNK d   0      -4.798   3.975 -36.115  0.00  0.00     0.062 C 
ATOM     31  C   UNK d   0      -6.499   5.688 -35.946  0.00  0.00    -0.013 A 
ATOM     32  C   UNK d   0      -3.615   3.459 -35.612  0.00  0.00     0.066 A 
BRANCH   8  33
ATOM     33  C   UNK d   0      -1.016   1.147 -34.422  0.00  0.00     0.151 C 
BRANCH  33  34
ATOM     34  C   UNK d   0      -0.077   0.735 -35.481  0.00  0.00     0.143 C 
ATOM     35  O   UNK d   0       0.011   1.375 -36.538  0.00  0.00    -0.650 OA
BRANCH  34  36
ATOM     36  O   UNK d   0       0.711  -0.377 -35.290  0.00  0.00    -0.776 OA
ATOM     37  H   UNK d   0       1.661  -0.299 -34.903  0.00  0.00     0.167 HD
ENDBRANCH  34  36
ENDBRANCH  33  34
ENDBRANCH   8  33
BRANCH  31  38
ATOM     38  C   UNK d   0      -7.628   4.803 -35.469  0.00  0.00     0.151 C 
BRANCH  38  39
ATOM     39  C   UNK d   0      -7.698   4.711 -34.026  0.00  0.00     0.143 C 
ATOM     40  O   UNK d   0      -6.709   4.909 -33.298  0.00  0.00    -0.650 OA
BRANCH  39  41
ATOM     41  O   UNK d   0      -8.910   4.389 -33.417  0.00  0.00    -0.776 OA
ATOM     42  H   UNK d   0      -9.522   3.739 -33.921  0.00  0.00     0.167 HD
ENDBRANCH  39  41
ENDBRANCH  38  39
ENDBRANCH  31  38
BRANCH  27  43
ATOM     43  C   UNK d   0      -7.821   7.842 -35.957  0.00  0.00     0.052 C 
BRANCH  43  44
ATOM     44  C   UNK d   0      -7.934   8.424 -34.585  0.00  0.00     0.115 C 
BRANCH  44  45
ATOM     45  C   UNK d   0      -9.352   8.836 -34.414  0.00  0.00     0.139 C 
ATOM     46  O   UNK d   0      -9.733   9.892 -34.976  0.00  0.00    -0.650 OA
BRANCH  45  47
ATOM     47  O   UNK d   0     -10.257   8.107 -33.674  0.00  0.00    -0.776 OA
ATOM     48  H   UNK d   0     -10.784   7.308 -34.063  0.00  0.00     0.167 HD
ENDBRANCH  45  47
ENDBRANCH  44  45
ENDBRANCH  43  44
ENDBRANCH  27  43
BRANCH  24  49
ATOM     49  C   UNK d   0      -4.431  12.071 -37.091  0.00  0.00     0.052 C 
BRANCH  49  50
ATOM     50  C   UNK d   0      -5.499  12.421 -36.086  0.00  0.00     0.115 C 
BRANCH  50  51
ATOM     51  C   UNK d   0      -6.865  12.532 -36.579  0.00  0.00     0.139 C 
ATOM     52  O   UNK d   0      -7.230  13.443 -37.359  0.00  0.00    -0.650 OA
BRANCH  51  53
ATOM     53  O   UNK d   0      -7.816  11.605 -36.181  0.00  0.00    -0.776 OA
ATOM     54  H   UNK d   0      -7.793  10.691 -36.598  0.00  0.00     0.167 HD
ENDBRANCH  51  53
ENDBRANCH  50  51
ENDBRANCH  49  50
ENDBRANCH  24  49
BRANCH  21  55
ATOM     55  C   UNK d   0      -1.596  12.355 -35.896  0.00  0.00     0.151 C 
BRANCH  55  56
ATOM     56  C   UNK d   0      -1.195  12.930 -37.189  0.00  0.00     0.143 C 
ATOM     57  O   UNK d   0      -0.835  14.117 -37.317  0.00  0.00    -0.650 OA
BRANCH  56  58
ATOM     58  O   UNK d   0      -1.224  12.099 -38.307  0.00  0.00    -0.776 OA
ATOM     59  H   UNK d   0      -0.769  12.488 -39.153  0.00  0.00     0.167 HD
ENDBRANCH  56  58
ENDBRANCH  55  56
ENDBRANCH  21  55
BRANCH  18  60
ATOM     60  C   UNK d   0       2.051   8.421 -35.704  0.00  0.00     0.151 C 
BRANCH  60  61
ATOM     61  C   UNK d   0       2.867   8.700 -34.512  0.00  0.00     0.143 C 
ATOM     62  O   UNK d   0       2.512   9.292 -33.492  0.00  0.00    -0.650 OA
BRANCH  61  63
ATOM     63  O   UNK d   0       4.199   8.225 -34.569  0.00  0.00    -0.776 OA
ATOM     64  H   UNK d   0       4.922   8.762 -35.014  0.00  0.00     0.167 HD
ENDBRANCH  61  63
ENDBRANCH  60  61
ENDBRANCH  18  60
BRANCH  14  65
ATOM     65  C   UNK d   0       2.274   5.456 -35.099  0.00  0.00     0.052 C 
BRANCH  65  66
ATOM     66  C   UNK d   0       2.374   4.635 -36.336  0.00  0.00     0.115 C 
BRANCH  66  67
ATOM     67  C   UNK d   0       1.435   4.839 -37.403  0.00  0.00     0.139 C 
ATOM     68  O   UNK d   0       1.617   5.833 -38.198  0.00  0.00    -0.650 OA
BRANCH  67  69
ATOM     69  O   UNK d   0       0.309   4.075 -37.707  0.00  0.00    -0.776 OA
ATOM     70  H   UNK d   0       0.226   3.180 -37.204  0.00  0.00     0.167 HD
ENDBRANCH  67  69
ENDBRANCH  66  67
ENDBRANCH  65  66
ENDBRANCH  14  65
ENDBRANCH   6   7
ENDBRANCH   5   6
ENDBRANCH   2   5
TORSDOF 28
ENDMDL
MODEL 5
REMARK VINA RESULT:      -7.4      1.456      1.921
REMARK  28 active torsions:
REMARK  status: ('A' for Active; 'I' for Inactive)
REMARK    1  A    between atoms: C_2  and  O_3 
REMARK    2  A    between atoms: C_2  and  C_4 
REMARK    3  A    between atoms: C_4  and  C_5 
REMARK    4  A    between atoms: C_5  and  C_6 
REMARK    5  A    between atoms: C_7  and  C_8 
REMARK    6  A    between atoms: C_8  and  C_9 
REMARK    7  A    between atoms: C_9  and  O_11 
REMARK    8  A    between atoms: C_28  and  C_29 
REMARK    9  A    between atoms: C_29  and  C_30 
REMARK   10  A    between atoms: C_30  and  O_32 
REMARK   11  A    between atoms: C_33  and  C_34 
REMARK   12  A    between atoms: C_34  and  C_35 
REMARK   13  A    between atoms: C_35  and  C_36 
REMARK   14  A    between atoms: C_36  and  O_38 
REMARK   15  A    between atoms: C_39  and  C_40 
REMARK   16  A    between atoms: C_40  and  C_41 
REMARK   17  A    between atoms: C_41  and  C_42 
REMARK   18  A    between atoms: C_42  and  O_44 
REMARK   19  A    between atoms: C_45  and  C_46 
REMARK   20  A    between atoms: C_46  and  C_47 
REMARK   21  A    between atoms: C_47  and  O_49 
REMARK   22  A    between atoms: C_50  and  C_51 
REMARK   23  A    between atoms: C_51  and  C_52 
REMARK   24  A    between atoms: C_52  and  O_54 
REMARK   25  A    between atoms: C_55  and  C_56 
REMARK   26  A    between atoms: C_56  and  C_57 
REMARK   27  A    between atoms: C_57  and  C_58 
REMARK   28  A    between atoms: C_58  and  O_60 
ROOT
ATOM      1  O   UNK d   0       3.635   9.366 -33.821  0.00  0.00    -0.650 OA
ATOM      2  C   UNK d   0       2.704   9.193 -33.003  0.00  0.00     0.139 C 
ENDROOT
BRANCH   2   3
ATOM      3  O   UNK d   0       3.003   8.955 -31.683  0.00  0.00    -0.776 OA
ATOM      4  H   UNK d   0       3.963   8.771 -31.384  0.00  0.00     0.167 HD
ENDBRANCH   2   3
BRANCH   2   5
ATOM      5  C   UNK d   0       1.287   9.244 -33.461  0.00  0.00     0.115 C 
BRANCH   5   6
ATOM      6  C   UNK d   0       1.219   9.090 -34.956  0.00  0.00     0.052 C 
BRANCH   6   7
ATOM      7  C   UNK d   0       0.044   8.254 -35.402  0.00  0.00    -0.020 A 
ATOM      8  C   UNK d   0       0.046   6.990 -35.740  0.00  0.00    -0.011 A 
ATOM      9  C   UNK d   0      -1.313   6.625 -36.104  0.00  0.00     0.067 A 
ATOM     10  C   UNK d   0      -1.969   5.457 -36.524  0.00  0.00     0.062 C 
ATOM     11  N   UNK d   0      -2.076   7.729 -35.963  0.00  0.00    -0.248 NA
ATOM     12  C   UNK d   0      -3.349   5.228 -36.561  0.00  0.00     0.041 A 
ATOM     13  N   UNK d   0      -4.367   6.012 -36.964  0.00  0.00    -0.355 N 
ATOM     14  C   UNK d   0      -3.851   4.013 -36.060  0.00  0.00    -0.022 A 
ATOM     15  C   UNK d   0      -5.502   5.329 -36.724  0.00  0.00     0.042 A 
ATOM     16  H   UNK d   0      -4.284   7.020 -37.427  0.00  0.00     0.166 HD
ATOM     17  C   UNK d   0      -6.847   5.681 -36.956  0.00  0.00     0.062 C 
ATOM     18  C   UNK d   0      -5.219   4.071 -36.157  0.00  0.00    -0.013 A 
ATOM     19  C   UNK d   0      -7.484   6.867 -36.696  0.00  0.00     0.067 A 
ATOM     20  N   UNK d   0      -6.715   7.907 -36.362  0.00  0.00    -0.248 NA
ATOM     21  C   UNK d   0      -8.862   7.329 -36.669  0.00  0.00    -0.011 A 
ATOM     22  C   UNK d   0      -7.490   9.014 -36.118  0.00  0.00     0.066 A 
ATOM     23  C   UNK d   0      -6.813  10.181 -35.796  0.00  0.00     0.062 C 
ATOM     24  C   UNK d   0      -8.859   8.585 -36.326  0.00  0.00    -0.020 A 
ATOM     25  C   UNK d   0      -5.426  10.394 -35.776  0.00  0.00     0.041 A 
ATOM     26  N   UNK d   0      -4.415   9.621 -35.362  0.00  0.00    -0.355 N 
ATOM     27  C   UNK d   0      -4.923  11.612 -36.284  0.00  0.00    -0.022 A 
ATOM     28  C   UNK d   0      -3.282  10.304 -35.592  0.00  0.00     0.042 A 
ATOM     29  H   UNK d   0      -4.501   8.613 -34.887  0.00  0.00     0.166 HD
ATOM     30  C   UNK d   0      -1.939   9.969 -35.359  0.00  0.00     0.062 C 
ATOM     31  C   UNK d   0      -3.568  11.563 -36.172  0.00  0.00    -0.013 A 
ATOM     32  C   UNK d   0      -1.319   8.744 -35.543  0.00  0.00     0.066 A 
BRANCH   8  33
ATOM     33  C   UNK d   0       1.208   6.082 -35.762  0.00  0.00     0.151 C 
BRANCH  33  34
ATOM     34  C   UNK d   0       1.761   5.895 -37.116  0.00  0.00     0.143 C 
ATOM     35  O   UNK d   0       2.546   6.721 -37.602  0.00  0.00    -0.650 OA
BRANCH  34  36
ATOM     36  O   UNK d   0       1.397   4.789 -37.847  0.00  0.00    -0.776 OA
ATOM     37  H   UNK d   0       0.412   4.605 -38.085  0.00  0.00     0.167 HD
ENDBRANCH  34  36
ENDBRANCH  33  34
ENDBRANCH   8  33
BRANCH  31  38
ATOM     38  C   UNK d   0      -2.598  12.640 -36.601  0.00  0.00     0.151 C 
BRANCH  38  39
ATOM     39  C   UNK d   0      -2.360  13.624 -35.567  0.00  0.00     0.143 C 
ATOM     40  O   UNK d   0      -3.097  13.737 -34.572  0.00  0.00    -0.650 OA
BRANCH  39  41
ATOM     41  O   UNK d   0      -1.267  14.484 -35.677  0.00  0.00    -0.776 OA
ATOM     42  H   UNK d   0      -1.069  15.085 -34.871  0.00  0.00     0.167 HD
ENDBRANCH  39  41
ENDBRANCH  38  39
ENDBRANCH  31  38
BRANCH  27  43
ATOM     43  C   UNK d   0      -5.668  12.793 -36.855  0.00  0.00     0.052 C 
BRANCH  43  44
ATOM     44  C   UNK d   0      -6.678  13.366 -35.914  0.00  0.00     0.115 C 
BRANCH  44  45
ATOM     45  C   UNK d   0      -7.887  13.670 -36.723  0.00  0.00     0.139 C 
ATOM     46  O   UNK d   0      -7.887  13.337 -37.934  0.00  0.00    -0.650 OA
BRANCH  45  47
ATOM     47  O   UNK d   0      -8.999  14.292 -36.200  0.00  0.00    -0.776 OA
ATOM     48  H   UNK d   0      -9.351  15.198 -36.548  0.00  0.00     0.167 HD
ENDBRANCH  45  47
ENDBRANCH  44  45
ENDBRANCH  43  44
ENDBRANCH  27  43
BRANCH  24  49
ATOM     49  C   UNK d   0     -10.040   9.457 -36.213  0.00  0.00     0.052 C 
BRANCH  49  50
ATOM     50  C   UNK d   0      -9.980  10.558 -37.241  0.00  0.00     0.115 C 
BRANCH  50  51
ATOM     51  C   UNK d   0     -11.109  11.476 -37.300  0.00  0.00     0.139 C 
ATOM     52  O   UNK d   0     -12.232  11.198 -36.816  0.00  0.00    -0.650 OA
BRANCH  51  53
ATOM     53  O   UNK d   0     -10.960  12.710 -37.914  0.00  0.00    -0.776 OA
ATOM     54  H   UNK d   0     -10.030  13.019 -38.139  0.00  0.00     0.167 HD
ENDBRANCH  51  53
ENDBRANCH  50  51
ENDBRANCH  49  50
ENDBRANCH  24  49
BRANCH  21  55
ATOM     55  C   UNK d   0     -10.038   6.468 -36.994  0.00  0.00     0.151 C 
BRANCH  55  56
ATOM     56  C   UNK d   0     -10.200   5.370 -36.029  0.00  0.00     0.143 C 
ATOM     57  O   UNK d   0     -10.469   5.562 -34.827  0.00  0.00    -0.650 OA
BRANCH  56  58
ATOM     58  O   UNK d   0     -10.043   4.066 -36.497  0.00  0.00    -0.776 OA
ATOM     59  H   UNK d   0     -10.204   3.326 -35.789  0.00  0.00     0.167 HD
ENDBRANCH  56  58
ENDBRANCH  55  56
ENDBRANCH  21  55
BRANCH  18  60
ATOM     60  C   UNK d   0      -6.163   2.978 -35.723  0.00  0.00     0.151 C 
BRANCH  60  61
ATOM     61  C   UNK d   0      -6.607   3.341 -34.369  0.00  0.00     0.143 C 
ATOM     62  O   UNK d   0      -5.917   3.391 -33.350  0.00  0.00    -0.650 OA
BRANCH  61  63
ATOM     63  O   UNK d   0      -7.980   3.665 -34.251  0.00  0.00    -0.776 OA
ATOM     64  H   UNK d   0      -8.350   4.508 -34.655  0.00  0.00     0.167 HD
ENDBRANCH  61  63
ENDBRANCH  60  61
ENDBRANCH  18  60
BRANCH  14  65
ATOM     65  C   UNK d   0      -3.138   2.776 -35.593  0.00  0.00     0.052 C 
BRANCH  65  66
ATOM     66  C   UNK d   0      -2.720   1.888 -36.711  0.00  0.00     0.115 C 
BRANCH  66  67
ATOM     67  C   UNK d   0      -1.440   2.080 -37.332  0.00  0.00     0.139 C 
ATOM     68  O   UNK d   0      -0.382   1.800 -36.657  0.00  0.00    -0.650 OA
BRANCH  67  69
ATOM     69  O   UNK d   0      -1.177   2.549 -38.619  0.00  0.00    -0.776 OA
ATOM     70  H   UNK d   0      -0.818   1.851 -39.285  0.00  0.00     0.167 HD
ENDBRANCH  67  69
ENDBRANCH  66  67
ENDBRANCH  65  66
ENDBRANCH  14  65
ENDBRANCH   6   7
ENDBRANCH   5   6
ENDBRANCH   2   5
TORSDOF 28
ENDMDL
MODEL 6
REMARK VINA RESULT:      -7.4      2.474      7.336
REMARK  28 active torsions:
REMARK  status: ('A' for Active; 'I' for Inactive)
REMARK    1  A    between atoms: C_2  and  O_3 
REMARK    2  A    between atoms: C_2  and  C_4 
REMARK    3  A    between atoms: C_4  and  C_5 
REMARK    4  A    between atoms: C_5  and  C_6 
REMARK    5  A    between atoms: C_7  and  C_8 
REMARK    6  A    between atoms: C_8  and  C_9 
REMARK    7  A    between atoms: C_9  and  O_11 
REMARK    8  A    between atoms: C_28  and  C_29 
REMARK    9  A    between atoms: C_29  and  C_30 
REMARK   10  A    between atoms: C_30  and  O_32 
REMARK   11  A    between atoms: C_33  and  C_34 
REMARK   12  A    between atoms: C_34  and  C_35 
REMARK   13  A    between atoms: C_35  and  C_36 
REMARK   14  A    between atoms: C_36  and  O_38 
REMARK   15  A    between atoms: C_39  and  C_40 
REMARK   16  A    between atoms: C_40  and  C_41 
REMARK   17  A    between atoms: C_41  and  C_42 
REMARK   18  A    between atoms: C_42  and  O_44 
REMARK   19  A    between atoms: C_45  and  C_46 
REMARK   20  A    between atoms: C_46  and  C_47 
REMARK   21  A    between atoms: C_47  and  O_49 
REMARK   22  A    between atoms: C_50  and  C_51 
REMARK   23  A    between atoms: C_51  and  C_52 
REMARK   24  A    between atoms: C_52  and  O_54 
REMARK   25  A    between atoms: C_55  and  C_56 
REMARK   26  A    between atoms: C_56  and  C_57 
REMARK   27  A    between atoms: C_57  and  C_58 
REMARK   28  A    between atoms: C_58  and  O_60 
ROOT
ATOM      1  O   UNK d   0       0.264  -0.617 -33.204  0.00  0.00    -0.650 OA
ATOM      2  C   UNK d   0      -0.244  -0.451 -34.335  0.00  0.00     0.139 C 
ENDROOT
BRANCH   2   3
ATOM      3  O   UNK d   0      -0.221  -1.483 -35.242  0.00  0.00    -0.776 OA
ATOM      4  H   UNK d   0       0.480  -2.224 -35.181  0.00  0.00     0.167 HD
ENDBRANCH   2   3
BRANCH   2   5
ATOM      5  C   UNK d   0      -0.867   0.856 -34.691  0.00  0.00     0.115 C 
BRANCH   5   6
ATOM      6  C   UNK d   0      -0.571   1.196 -36.126  0.00  0.00     0.052 C 
BRANCH   6   7
ATOM      7  C   UNK d   0      -1.512   2.238 -36.682  0.00  0.00    -0.020 A 
ATOM      8  C   UNK d   0      -2.519   2.049 -37.496  0.00  0.00    -0.011 A 
ATOM      9  C   UNK d   0      -3.125   3.344 -37.761  0.00  0.00     0.067 A 
ATOM     10  C   UNK d   0      -4.216   3.818 -38.507  0.00  0.00     0.062 C 
ATOM     11  N   UNK d   0      -2.420   4.265 -37.072  0.00  0.00    -0.248 NA
ATOM     12  C   UNK d   0      -4.819   5.077 -38.419  0.00  0.00     0.041 A 
ATOM     13  N   UNK d   0      -4.287   6.309 -38.310  0.00  0.00    -0.355 N 
ATOM     14  C   UNK d   0      -6.223   5.157 -38.377  0.00  0.00    -0.022 A 
ATOM     15  C   UNK d   0      -5.317   7.168 -38.192  0.00  0.00     0.042 A 
ATOM     16  H   UNK d   0      -3.206   6.568 -38.335  0.00  0.00     0.166 HD
ATOM     17  C   UNK d   0      -5.325   8.570 -38.050  0.00  0.00     0.062 C 
ATOM     18  C   UNK d   0      -6.547   6.483 -38.229  0.00  0.00    -0.013 A 
ATOM     19  C   UNK d   0      -4.550   9.360 -37.240  0.00  0.00     0.067 A 
ATOM     20  N   UNK d   0      -3.510   8.775 -36.641  0.00  0.00    -0.248 NA
ATOM     21  C   UNK d   0      -4.560  10.751 -36.818  0.00  0.00    -0.011 A 
ATOM     22  C   UNK d   0      -2.841   9.681 -35.855  0.00  0.00     0.066 A 
ATOM     23  C   UNK d   0      -1.711   9.213 -35.201  0.00  0.00     0.062 C 
ATOM     24  C   UNK d   0      -3.560  10.931 -36.004  0.00  0.00    -0.020 A 
ATOM     25  C   UNK d   0      -1.114   7.948 -35.313  0.00  0.00     0.041 A 
ATOM     26  N   UNK d   0      -1.642   6.722 -35.406  0.00  0.00    -0.355 N 
ATOM     27  C   UNK d   0       0.295   7.868 -35.359  0.00  0.00    -0.022 A 
ATOM     28  C   UNK d   0      -0.617   5.862 -35.515  0.00  0.00     0.042 A 
ATOM     29  H   UNK d   0      -2.729   6.462 -35.370  0.00  0.00     0.166 HD
ATOM     30  C   UNK d   0      -0.594   4.465 -35.647  0.00  0.00     0.062 C 
ATOM     31  C   UNK d   0       0.618   6.553 -35.488  0.00  0.00    -0.013 A 
ATOM     32  C   UNK d   0      -1.436   3.663 -36.402  0.00  0.00     0.066 A 
BRANCH   8  33
ATOM     33  C   UNK d   0      -2.973   0.765 -38.061  0.00  0.00     0.151 C 
BRANCH  33  34
ATOM     34  C   UNK d   0      -2.374   0.477 -39.377  0.00  0.00     0.143 C 
ATOM     35  O   UNK d   0      -2.215  -0.690 -39.762  0.00  0.00    -0.650 OA
BRANCH  34  36
ATOM     36  O   UNK d   0      -1.987   1.520 -40.185  0.00  0.00    -0.776 OA
ATOM     37  H   UNK d   0      -2.058   1.457 -41.210  0.00  0.00     0.167 HD
ENDBRANCH  34  36
ENDBRANCH  33  34
ENDBRANCH   8  33
BRANCH  31  38
ATOM     38  C   UNK d   0       2.014   5.983 -35.593  0.00  0.00     0.151 C 
BRANCH  38  39
ATOM     39  C   UNK d   0       2.479   5.884 -36.960  0.00  0.00     0.143 C 
ATOM     40  O   UNK d   0       2.479   4.810 -37.587  0.00  0.00    -0.650 OA
BRANCH  39  41
ATOM     41  O   UNK d   0       2.946   7.026 -37.610  0.00  0.00    -0.776 OA
ATOM     42  H   UNK d   0       3.733   6.901 -38.254  0.00  0.00     0.167 HD
ENDBRANCH  39  41
ENDBRANCH  38  39
ENDBRANCH  31  38
BRANCH  27  43
ATOM     43  C   UNK d   0       1.320   8.972 -35.285  0.00  0.00     0.052 C 
BRANCH  43  44
ATOM     44  C   UNK d   0       2.175   8.904 -34.061  0.00  0.00     0.115 C 
BRANCH  44  45
ATOM     45  C   UNK d   0       1.293   9.229 -32.909  0.00  0.00     0.139 C 
ATOM     46  O   UNK d   0       0.878  10.409 -32.796  0.00  0.00    -0.650 OA
BRANCH  45  47
ATOM     47  O   UNK d   0       0.912   8.293 -31.972  0.00  0.00    -0.776 OA
ATOM     48  H   UNK d   0      -0.075   8.037 -31.805  0.00  0.00     0.167 HD
ENDBRANCH  45  47
ENDBRANCH  44  45
ENDBRANCH  43  44
ENDBRANCH  27  43
BRANCH  24  49
ATOM     49  C   UNK d   0      -3.176  12.203 -35.368  0.00  0.00     0.052 C 
BRANCH  49  50
ATOM     50  C   UNK d   0      -2.157  12.924 -36.213  0.00  0.00     0.115 C 
BRANCH  50  51
ATOM     51  C   UNK d   0      -1.631  14.179 -35.693  0.00  0.00     0.139 C 
ATOM     52  O   UNK d   0      -0.846  14.906 -36.346  0.00  0.00    -0.650 OA
BRANCH  51  53
ATOM     53  O   UNK d   0      -1.998  14.604 -34.425  0.00  0.00    -0.776 OA
ATOM     54  H   UNK d   0      -2.949  14.462 -34.133  0.00  0.00     0.167 HD
ENDBRANCH  51  53
ENDBRANCH  50  51
ENDBRANCH  49  50
ENDBRANCH  24  49
BRANCH  21  55
ATOM     55  C   UNK d   0      -5.566  11.755 -37.274  0.00  0.00     0.151 C 
BRANCH  55  56
ATOM     56  C   UNK d   0      -6.614  11.983 -36.268  0.00  0.00     0.143 C 
ATOM     57  O   UNK d   0      -7.379  11.080 -35.874  0.00  0.00    -0.650 OA
BRANCH  56  58
ATOM     58  O   UNK d   0      -6.743  13.268 -35.743  0.00  0.00    -0.776 OA
ATOM     59  H   UNK d   0      -7.253  13.936 -36.348  0.00  0.00     0.167 HD
ENDBRANCH  56  58
ENDBRANCH  55  56
ENDBRANCH  21  55
BRANCH  18  60
ATOM     60  C   UNK d   0      -7.952   7.024 -38.130  0.00  0.00     0.151 C 
BRANCH  60  61
ATOM     61  C   UNK d   0      -8.201   7.242 -36.697  0.00  0.00     0.143 C 
ATOM     62  O   UNK d   0      -8.073   6.421 -35.789  0.00  0.00    -0.650 OA
BRANCH  61  63
ATOM     63  O   UNK d   0      -8.632   8.545 -36.352  0.00  0.00    -0.776 OA
ATOM     64  H   UNK d   0      -7.979   9.304 -36.273  0.00  0.00     0.167 HD
ENDBRANCH  61  63
ENDBRANCH  60  61
ENDBRANCH  18  60
BRANCH  14  65
ATOM     65  C   UNK d   0      -7.272   4.098 -38.563  0.00  0.00     0.052 C 
BRANCH  65  66
ATOM     66  C   UNK d   0      -7.563   3.813 -39.994  0.00  0.00     0.115 C 
BRANCH  66  67
ATOM     67  C   UNK d   0      -8.920   3.837 -40.463  0.00  0.00     0.139 C 
ATOM     68  O   UNK d   0      -9.795   4.484 -39.777  0.00  0.00    -0.650 OA
BRANCH  67  69
ATOM     69  O   UNK d   0      -9.438   3.231 -41.607  0.00  0.00    -0.776 OA
ATOM     70  H   UNK d   0     -10.275   2.647 -41.464  0.00  0.00     0.167 HD
ENDBRANCH  67  69
ENDBRANCH  66  67
ENDBRANCH  65  66
ENDBRANCH  14  65
ENDBRANCH   6   7
ENDBRANCH   5   6
ENDBRANCH   2   5
TORSDOF 28
ENDMDL
MODEL 7
REMARK VINA RESULT:      -7.4      2.278      8.134
REMARK  28 active torsions:
REMARK  status: ('A' for Active; 'I' for Inactive)
REMARK    1  A    between atoms: C_2  and  O_3 
REMARK    2  A    between atoms: C_2  and  C_4 
REMARK    3  A    between atoms: C_4  and  C_5 
REMARK    4  A    between atoms: C_5  and  C_6 
REMARK    5  A    between atoms: C_7  and  C_8 
REMARK    6  A    between atoms: C_8  and  C_9 
REMARK    7  A    between atoms: C_9  and  O_11 
REMARK    8  A    between atoms: C_28  and  C_29 
REMARK    9  A    between atoms: C_29  and  C_30 
REMARK   10  A    between atoms: C_30  and  O_32 
REMARK   11  A    between atoms: C_33  and  C_34 
REMARK   12  A    between atoms: C_34  and  C_35 
REMARK   13  A    between atoms: C_35  and  C_36 
REMARK   14  A    between atoms: C_36  and  O_38 
REMARK   15  A    between atoms: C_39  and  C_40 
REMARK   16  A    between atoms: C_40  and  C_41 
REMARK   17  A    between atoms: C_41  and  C_42 
REMARK   18  A    between atoms: C_42  and  O_44 
REMARK   19  A    between atoms: C_45  and  C_46 
REMARK   20  A    between atoms: C_46  and  C_47 
REMARK   21  A    between atoms: C_47  and  O_49 
REMARK   22  A    between atoms: C_50  and  C_51 
REMARK   23  A    between atoms: C_51  and  C_52 
REMARK   24  A    between atoms: C_52  and  O_54 
REMARK   25  A    between atoms: C_55  and  C_56 
REMARK   26  A    between atoms: C_56  and  C_57 
REMARK   27  A    between atoms: C_57  and  C_58 
REMARK   28  A    between atoms: C_58  and  O_60 
ROOT
ATOM      1  O   UNK d   0      -0.061  -1.307 -36.262  0.00  0.00    -0.650 OA
ATOM      2  C   UNK d   0      -0.714  -0.801 -35.323  0.00  0.00     0.139 C 
ENDROOT
BRANCH   2   3
ATOM      3  O   UNK d   0      -1.729  -1.523 -34.744  0.00  0.00    -0.776 OA
ATOM      4  H   UNK d   0      -1.791  -1.627 -33.729  0.00  0.00     0.167 HD
ENDBRANCH   2   3
BRANCH   2   5
ATOM      5  C   UNK d   0      -0.391   0.572 -34.841  0.00  0.00     0.115 C 
BRANCH   5   6
ATOM      6  C   UNK d   0      -1.448   1.045 -33.881  0.00  0.00     0.052 C 
BRANCH   6   7
ATOM      7  C   UNK d   0      -2.326   2.125 -34.468  0.00  0.00    -0.020 A 
ATOM      8  C   UNK d   0      -3.561   2.011 -34.882  0.00  0.00    -0.011 A 
ATOM      9  C   UNK d   0      -3.987   3.311 -35.373  0.00  0.00     0.067 A 
ATOM     10  C   UNK d   0      -5.163   3.854 -35.914  0.00  0.00     0.062 C 
ATOM     11  N   UNK d   0      -2.945   4.156 -35.225  0.00  0.00    -0.248 NA
ATOM     12  C   UNK d   0      -5.476   5.208 -36.074  0.00  0.00     0.041 A 
ATOM     13  N   UNK d   0      -4.733   6.245 -36.506  0.00  0.00    -0.355 N 
ATOM     14  C   UNK d   0      -6.751   5.662 -35.689  0.00  0.00    -0.022 A 
ATOM     15  C   UNK d   0      -5.501   7.346 -36.398  0.00  0.00     0.042 A 
ATOM     16  H   UNK d   0      -3.694   6.197 -36.898  0.00  0.00     0.166 HD
ATOM     17  C   UNK d   0      -5.220   8.690 -36.712  0.00  0.00     0.062 C 
ATOM     18  C   UNK d   0      -6.773   7.020 -35.889  0.00  0.00    -0.013 A 
ATOM     19  C   UNK d   0      -4.096   9.424 -36.430  0.00  0.00     0.067 A 
ATOM     20  N   UNK d   0      -3.034   8.755 -35.974  0.00  0.00    -0.248 NA
ATOM     21  C   UNK d   0      -3.725  10.829 -36.484  0.00  0.00    -0.011 A 
ATOM     22  C   UNK d   0      -1.997   9.619 -35.724  0.00  0.00     0.066 A 
ATOM     23  C   UNK d   0      -0.813   9.049 -35.279  0.00  0.00     0.062 C 
ATOM     24  C   UNK d   0      -2.497  10.936 -36.065  0.00  0.00    -0.020 A 
ATOM     25  C   UNK d   0      -0.515   7.685 -35.138  0.00  0.00     0.041 A 
ATOM     26  N   UNK d   0      -1.248   6.657 -34.694  0.00  0.00    -0.355 N 
ATOM     27  C   UNK d   0       0.763   7.230 -35.528  0.00  0.00    -0.022 A 
ATOM     28  C   UNK d   0      -0.482   5.559 -34.792  0.00  0.00     0.042 A 
ATOM     29  H   UNK d   0      -2.290   6.709 -34.290  0.00  0.00     0.166 HD
ATOM     30  C   UNK d   0      -0.746   4.218 -34.475  0.00  0.00     0.062 C 
ATOM     31  C   UNK d   0       0.792   5.886 -35.314  0.00  0.00    -0.013 A 
ATOM     32  C   UNK d   0      -1.915   3.504 -34.685  0.00  0.00     0.066 A 
BRANCH   8  33
ATOM     33  C   UNK d   0      -4.391   0.792 -34.869  0.00  0.00     0.151 C 
BRANCH  33  34
ATOM     34  C   UNK d   0      -5.357   0.772 -33.755  0.00  0.00     0.143 C 
ATOM     35  O   UNK d   0      -6.438   0.177 -33.862  0.00  0.00    -0.650 OA
BRANCH  34  36
ATOM     36  O   UNK d   0      -5.050   1.424 -32.583  0.00  0.00    -0.776 OA
ATOM     37  H   UNK d   0      -5.781   1.876 -32.017  0.00  0.00     0.167 HD
ENDBRANCH  34  36
ENDBRANCH  33  34
ENDBRANCH   8  33
BRANCH  31  38
ATOM     38  C   UNK d   0       1.954   4.963 -35.598  0.00  0.00     0.151 C 
BRANCH  38  39
ATOM     39  C   UNK d   0       2.048   4.592 -36.994  0.00  0.00     0.143 C 
ATOM     40  O   UNK d   0       1.054   4.556 -37.741  0.00  0.00    -0.650 OA
BRANCH  39  41
ATOM     41  O   UNK d   0       3.290   4.260 -37.534  0.00  0.00    -0.776 OA
ATOM     42  H   UNK d   0       3.549   3.268 -37.521  0.00  0.00     0.167 HD
ENDBRANCH  39  41
ENDBRANCH  38  39
ENDBRANCH  31  38
BRANCH  27  43
ATOM     43  C   UNK d   0       1.930   8.009 -36.083  0.00  0.00     0.052 C 
BRANCH  43  44
ATOM     44  C   UNK d   0       2.795   8.610 -35.023  0.00  0.00     0.115 C 
BRANCH  44  45
ATOM     45  C   UNK d   0       3.868   7.622 -34.740  0.00  0.00     0.139 C 
ATOM     46  O   UNK d   0       3.958   7.165 -33.573  0.00  0.00    -0.650 OA
BRANCH  45  47
ATOM     47  O   UNK d   0       4.756   7.187 -35.699  0.00  0.00    -0.776 OA
ATOM     48  H   UNK d   0       5.273   7.833 -36.318  0.00  0.00     0.167 HD
ENDBRANCH  45  47
ENDBRANCH  44  45
ENDBRANCH  43  44
ENDBRANCH  27  43
BRANCH  24  49
ATOM     49  C   UNK d   0      -1.710  12.180 -35.992  0.00  0.00     0.052 C 
BRANCH  49  50
ATOM     50  C   UNK d   0      -1.041  12.456 -37.314  0.00  0.00     0.115 C 
BRANCH  50  51
ATOM     51  C   UNK d   0      -1.295  13.751 -37.929  0.00  0.00     0.139 C 
ATOM     52  O   UNK d   0      -0.902  14.829 -37.423  0.00  0.00    -0.650 OA
BRANCH  51  53
ATOM     53  O   UNK d   0      -1.998  13.819 -39.122  0.00  0.00    -0.776 OA
ATOM     54  H   UNK d   0      -2.546  14.642 -39.305  0.00  0.00     0.167 HD
ENDBRANCH  51  53
ENDBRANCH  50  51
ENDBRANCH  49  50
ENDBRANCH  24  49
BRANCH  21  55
ATOM     55  C   UNK d   0      -4.635  11.916 -36.952  0.00  0.00     0.151 C 
BRANCH  55  56
ATOM     56  C   UNK d   0      -5.530  12.384 -35.882  0.00  0.00     0.143 C 
ATOM     57  O   UNK d   0      -5.231  13.318 -35.112  0.00  0.00    -0.650 OA
BRANCH  56  58
ATOM     58  O   UNK d   0      -6.761  11.745 -35.740  0.00  0.00    -0.776 OA
ATOM     59  H   UNK d   0      -7.545  12.365 -35.467  0.00  0.00     0.167 HD
ENDBRANCH  56  58
ENDBRANCH  55  56
ENDBRANCH  21  55
BRANCH  18  60
ATOM     60  C   UNK d   0      -7.951   7.917 -35.598  0.00  0.00     0.151 C 
BRANCH  60  61
ATOM     61  C   UNK d   0      -7.872   8.234 -34.164  0.00  0.00     0.143 C 
ATOM     62  O   UNK d   0      -6.866   8.222 -33.455  0.00  0.00    -0.650 OA
BRANCH  61  63
ATOM     63  O   UNK d   0      -9.102   8.588 -33.557  0.00  0.00    -0.776 OA
ATOM     64  H   UNK d   0      -9.441   8.097 -32.749  0.00  0.00     0.167 HD
ENDBRANCH  61  63
ENDBRANCH  60  61
ENDBRANCH  18  60
BRANCH  14  65
ATOM     65  C   UNK d   0      -7.969   4.904 -35.244  0.00  0.00     0.052 C 
BRANCH  65  66
ATOM     66  C   UNK d   0      -9.150   5.136 -36.118  0.00  0.00     0.115 C 
BRANCH  66  67
ATOM     67  C   UNK d   0     -10.434   5.390 -35.527  0.00  0.00     0.139 C 
ATOM     68  O   UNK d   0     -11.485   4.981 -36.144  0.00  0.00    -0.650 OA
BRANCH  67  69
ATOM     69  O   UNK d   0     -10.706   6.047 -34.327  0.00  0.00    -0.776 OA
ATOM     70  H   UNK d   0     -11.024   5.448 -33.551  0.00  0.00     0.167 HD
ENDBRANCH  67  69
ENDBRANCH  66  67
ENDBRANCH  65  66
ENDBRANCH  14  65
ENDBRANCH   6   7
ENDBRANCH   5   6
ENDBRANCH   2   5
TORSDOF 28
ENDMDL
MODEL 8
REMARK VINA RESULT:      -7.3      1.521      6.996
REMARK  28 active torsions:
REMARK  status: ('A' for Active; 'I' for Inactive)
REMARK    1  A    between atoms: C_2  and  O_3 
REMARK    2  A    between atoms: C_2  and  C_4 
REMARK    3  A    between atoms: C_4  and  C_5 
REMARK    4  A    between atoms: C_5  and  C_6 
REMARK    5  A    between atoms: C_7  and  C_8 
REMARK    6  A    between atoms: C_8  and  C_9 
REMARK    7  A    between atoms: C_9  and  O_11 
REMARK    8  A    between atoms: C_28  and  C_29 
REMARK    9  A    between atoms: C_29  and  C_30 
REMARK   10  A    between atoms: C_30  and  O_32 
REMARK   11  A    between atoms: C_33  and  C_34 
REMARK   12  A    between atoms: C_34  and  C_35 
REMARK   13  A    between atoms: C_35  and  C_36 
REMARK   14  A    between atoms: C_36  and  O_38 
REMARK   15  A    between atoms: C_39  and  C_40 
REMARK   16  A    between atoms: C_40  and  C_41 
REMARK   17  A    between atoms: C_41  and  C_42 
REMARK   18  A    between atoms: C_42  and  O_44 
REMARK   19  A    between atoms: C_45  and  C_46 
REMARK   20  A    between atoms: C_46  and  C_47 
REMARK   21  A    between atoms: C_47  and  O_49 
REMARK   22  A    between atoms: C_50  and  C_51 
REMARK   23  A    between atoms: C_51  and  C_52 
REMARK   24  A    between atoms: C_52  and  O_54 
REMARK   25  A    between atoms: C_55  and  C_56 
REMARK   26  A    between atoms: C_56  and  C_57 
REMARK   27  A    between atoms: C_57  and  C_58 
REMARK   28  A    between atoms: C_58  and  O_60 
ROOT
ATOM      1  O   UNK d   0       3.366   4.526 -33.526  0.00  0.00    -0.650 OA
ATOM      2  C   UNK d   0       2.893   4.474 -34.683  0.00  0.00     0.139 C 
ENDROOT
BRANCH   2   3
ATOM      3  O   UNK d   0       3.727   4.203 -35.741  0.00  0.00    -0.776 OA
ATOM      4  H   UNK d   0       3.377   3.740 -36.582  0.00  0.00     0.167 HD
ENDBRANCH   2   3
BRANCH   2   5
ATOM      5  C   UNK d   0       1.438   4.707 -34.907  0.00  0.00     0.115 C 
BRANCH   5   6
ATOM      6  C   UNK d   0       1.232   5.560 -36.129  0.00  0.00     0.052 C 
BRANCH   6   7
ATOM      7  C   UNK d   0       0.111   6.558 -35.959  0.00  0.00    -0.020 A 
ATOM      8  C   UNK d   0       0.209   7.820 -35.629  0.00  0.00    -0.011 A 
ATOM      9  C   UNK d   0      -1.134   8.373 -35.580  0.00  0.00     0.067 A 
ATOM     10  C   UNK d   0      -1.703   9.630 -35.319  0.00  0.00     0.062 C 
ATOM     11  N   UNK d   0      -1.989   7.376 -35.888  0.00  0.00    -0.248 NA
ATOM     12  C   UNK d   0      -3.012  10.040 -35.593  0.00  0.00     0.041 A 
ATOM     13  N   UNK d   0      -4.191   9.411 -35.429  0.00  0.00    -0.355 N 
ATOM     14  C   UNK d   0      -3.220  11.295 -36.195  0.00  0.00    -0.022 A 
ATOM     15  C   UNK d   0      -5.141  10.230 -35.919  0.00  0.00     0.042 A 
ATOM     16  H   UNK d   0      -4.351   8.416 -34.959  0.00  0.00     0.166 HD
ATOM     17  C   UNK d   0      -6.538  10.066 -35.995  0.00  0.00     0.062 C 
ATOM     18  C   UNK d   0      -4.570  11.421 -36.408  0.00  0.00    -0.013 A 
ATOM     19  C   UNK d   0      -7.257   8.967 -36.391  0.00  0.00     0.067 A 
ATOM     20  N   UNK d   0      -6.581   7.825 -36.543  0.00  0.00    -0.248 NA
ATOM     21  C   UNK d   0      -8.644   8.691 -36.727  0.00  0.00    -0.011 A 
ATOM     22  C   UNK d   0      -7.425   6.823 -36.955  0.00  0.00     0.066 A 
ATOM     23  C   UNK d   0      -6.858   5.567 -37.116  0.00  0.00     0.062 C 
ATOM     24  C   UNK d   0      -8.734   7.435 -37.060  0.00  0.00    -0.020 A 
ATOM     25  C   UNK d   0      -5.544   5.172 -36.823  0.00  0.00     0.041 A 
ATOM     26  N   UNK d   0      -4.370   5.792 -36.999  0.00  0.00    -0.355 N 
ATOM     27  C   UNK d   0      -5.336   3.915 -36.215  0.00  0.00    -0.022 A 
ATOM     28  C   UNK d   0      -3.421   4.973 -36.520  0.00  0.00     0.042 A 
ATOM     29  H   UNK d   0      -4.210   6.787 -37.482  0.00  0.00     0.166 HD
ATOM     30  C   UNK d   0      -2.027   5.120 -36.446  0.00  0.00     0.062 C 
ATOM     31  C   UNK d   0      -3.996   3.781 -36.019  0.00  0.00    -0.013 A 
ATOM     32  C   UNK d   0      -1.303   6.258 -36.127  0.00  0.00     0.066 A 
BRANCH   8  33
ATOM     33  C   UNK d   0       1.449   8.567 -35.347  0.00  0.00     0.151 C 
BRANCH  33  34
ATOM     34  C   UNK d   0       1.819   8.542 -33.920  0.00  0.00     0.143 C 
ATOM     35  O   UNK d   0       1.256   9.285 -33.104  0.00  0.00    -0.650 OA
BRANCH  34  36
ATOM     36  O   UNK d   0       2.803   7.681 -33.493  0.00  0.00    -0.776 OA
ATOM     37  H   UNK d   0       3.137   6.913 -34.090  0.00  0.00     0.167 HD
ENDBRANCH  34  36
ENDBRANCH  33  34
ENDBRANCH   8  33
BRANCH  31  38
ATOM     38  C   UNK d   0      -3.302   2.599 -35.383  0.00  0.00     0.151 C 
BRANCH  38  39
ATOM     39  C   UNK d   0      -2.693   2.924 -34.110  0.00  0.00     0.143 C 
ATOM     40  O   UNK d   0      -1.619   2.420 -33.738  0.00  0.00    -0.650 OA
BRANCH  39  41
ATOM     41  O   UNK d   0      -3.322   3.834 -33.261  0.00  0.00    -0.776 OA
ATOM     42  H   UNK d   0      -3.049   3.810 -32.274  0.00  0.00     0.167 HD
ENDBRANCH  39  41
ENDBRANCH  38  39
ENDBRANCH  31  38
BRANCH  27  43
ATOM     43  C   UNK d   0      -6.343   2.861 -35.825  0.00  0.00     0.052 C 
BRANCH  43  44
ATOM     44  C   UNK d   0      -6.433   2.648 -34.349  0.00  0.00     0.115 C 
BRANCH  44  45
ATOM     45  C   UNK d   0      -6.859   3.943 -33.758  0.00  0.00     0.139 C 
ATOM     46  O   UNK d   0      -6.037   4.565 -33.040  0.00  0.00    -0.650 OA
BRANCH  45  47
ATOM     47  O   UNK d   0      -8.107   4.486 -33.969  0.00  0.00    -0.776 OA
ATOM     48  H   UNK d   0      -8.359   5.443 -33.673  0.00  0.00     0.167 HD
ENDBRANCH  45  47
ENDBRANCH  44  45
ENDBRANCH  43  44
ENDBRANCH  27  43
BRANCH  24  49
ATOM     49  C   UNK d   0      -9.968   6.724 -37.435  0.00  0.00     0.052 C 
BRANCH  49  50
ATOM     50  C   UNK d   0     -10.505   5.949 -36.259  0.00  0.00     0.115 C 
BRANCH  50  51
ATOM     51  C   UNK d   0     -10.684   4.514 -36.433  0.00  0.00     0.139 C 
ATOM     52  O   UNK d   0      -9.775   3.685 -36.192  0.00  0.00    -0.650 OA
BRANCH  51  53
ATOM     53  O   UNK d   0     -11.899   4.024 -36.886  0.00  0.00    -0.776 OA
ATOM     54  H   UNK d   0     -12.737   4.511 -36.621  0.00  0.00     0.167 HD
ENDBRANCH  51  53
ENDBRANCH  50  51
ENDBRANCH  49  50
ENDBRANCH  24  49
BRANCH  21  55
ATOM     55  C   UNK d   0      -9.734   9.709 -36.675  0.00  0.00     0.151 C 
BRANCH  55  56
ATOM     56  C   UNK d   0     -10.006  10.157 -35.301  0.00  0.00     0.143 C 
ATOM     57  O   UNK d   0     -10.497   9.410 -34.432  0.00  0.00    -0.650 OA
BRANCH  56  58
ATOM     58  O   UNK d   0      -9.694  11.476 -34.974  0.00  0.00    -0.776 OA
ATOM     59  H   UNK d   0     -10.423  12.170 -35.221  0.00  0.00     0.167 HD
ENDBRANCH  56  58
ENDBRANCH  55  56
ENDBRANCH  21  55
BRANCH  18  60
ATOM     60  C   UNK d   0      -5.236  12.616 -37.044  0.00  0.00     0.151 C 
BRANCH  60  61
ATOM     61  C   UNK d   0      -6.028  13.251 -35.979  0.00  0.00     0.143 C 
ATOM     62  O   UNK d   0      -5.602  13.780 -34.952  0.00  0.00    -0.650 OA
BRANCH  61  63
ATOM     63  O   UNK d   0      -7.429  13.239 -36.182  0.00  0.00    -0.776 OA
ATOM     64  H   UNK d   0      -7.948  14.095 -36.267  0.00  0.00     0.167 HD
ENDBRANCH  61  63
ENDBRANCH  60  61
ENDBRANCH  18  60
BRANCH  14  65
ATOM     65  C   UNK d   0      -2.260  12.412 -36.490  0.00  0.00     0.052 C 
BRANCH  65  66
ATOM     66  C   UNK d   0      -2.292  13.493 -35.468  0.00  0.00     0.115 C 
BRANCH  66  67
ATOM     67  C   UNK d   0      -1.569  14.712 -35.698  0.00  0.00     0.139 C 
ATOM     68  O   UNK d   0      -0.722  14.750 -36.664  0.00  0.00    -0.650 OA
BRANCH  67  69
ATOM     69  O   UNK d   0      -1.664  15.907 -34.986  0.00  0.00    -0.776 OA
ATOM     70  H   UNK d   0      -1.004  16.015 -34.203  0.00  0.00     0.167 HD
ENDBRANCH  67  69
ENDBRANCH  66  67
ENDBRANCH  65  66
ENDBRANCH  14  65
ENDBRANCH   6   7
ENDBRANCH   5   6
ENDBRANCH   2   5
TORSDOF 28
ENDMDL
MODEL 9
REMARK VINA RESULT:      -7.3      2.928      7.941
REMARK  28 active torsions:
REMARK  status: ('A' for Active; 'I' for Inactive)
REMARK    1  A    between atoms: C_2  and  O_3 
REMARK    2  A    between atoms: C_2  and  C_4 
REMARK    3  A    between atoms: C_4  and  C_5 
REMARK    4  A    between atoms: C_5  and  C_6 
REMARK    5  A    between atoms: C_7  and  C_8 
REMARK    6  A    between atoms: C_8  and  C_9 
REMARK    7  A    between atoms: C_9  and  O_11 
REMARK    8  A    between atoms: C_28  and  C_29 
REMARK    9  A    between atoms: C_29  and  C_30 
REMARK   10  A    between atoms: C_30  and  O_32 
REMARK   11  A    between atoms: C_33  and  C_34 
REMARK   12  A    between atoms: C_34  and  C_35 
REMARK   13  A    between atoms: C_35  and  C_36 
REMARK   14  A    between atoms: C_36  and  O_38 
REMARK   15  A    between atoms: C_39  and  C_40 
REMARK   16  A    between atoms: C_40  and  C_41 
REMARK   17  A    between atoms: C_41  and  C_42 
REMARK   18  A    between atoms: C_42  and  O_44 
REMARK   19  A    between atoms: C_45  and  C_46 
REMARK   20  A    between atoms: C_46  and  C_47 
REMARK   21  A    between atoms: C_47  and  O_49 
REMARK   22  A    between atoms: C_50  and  C_51 
REMARK   23  A    between atoms: C_51  and  C_52 
REMARK   24  A    between atoms: C_52  and  O_54 
REMARK   25  A    between atoms: C_55  and  C_56 
REMARK   26  A    between atoms: C_56  and  C_57 
REMARK   27  A    between atoms: C_57  and  C_58 
REMARK   28  A    between atoms: C_58  and  O_60 
ROOT
ATOM      1  O   UNK d   0       0.144  -1.486 -32.289  0.00  0.00    -0.650 OA
ATOM      2  C   UNK d   0       0.049  -1.384 -33.532  0.00  0.00     0.139 C 
ENDROOT
BRANCH   2   3
ATOM      3  O   UNK d   0      -0.567  -2.385 -34.245  0.00  0.00    -0.776 OA
ATOM      4  H   UNK d   0      -1.462  -2.226 -34.711  0.00  0.00     0.167 HD
ENDBRANCH   2   3
BRANCH   2   5
ATOM      5  C   UNK d   0       0.602  -0.189 -34.229  0.00  0.00     0.115 C 
BRANCH   5   6
ATOM      6  C   UNK d   0       0.223  -0.218 -35.685  0.00  0.00     0.052 C 
BRANCH   6   7
ATOM      7  C   UNK d   0      -0.839   0.799 -36.030  0.00  0.00    -0.020 A 
ATOM      8  C   UNK d   0      -2.057   0.570 -36.450  0.00  0.00    -0.011 A 
ATOM      9  C   UNK d   0      -2.704   1.854 -36.659  0.00  0.00     0.067 A 
ATOM     10  C   UNK d   0      -3.973   2.294 -37.067  0.00  0.00     0.062 C 
ATOM     11  N   UNK d   0      -1.805   2.811 -36.347  0.00  0.00    -0.248 NA
ATOM     12  C   UNK d   0      -4.505   3.582 -36.941  0.00  0.00     0.041 A 
ATOM     13  N   UNK d   0      -3.955   4.792 -37.155  0.00  0.00    -0.355 N 
ATOM     14  C   UNK d   0      -5.819   3.732 -36.461  0.00  0.00    -0.022 A 
ATOM     15  C   UNK d   0      -4.884   5.707 -36.816  0.00  0.00     0.042 A 
ATOM     16  H   UNK d   0      -2.938   4.997 -37.556  0.00  0.00     0.166 HD
ATOM     17  C   UNK d   0      -4.834   7.114 -36.847  0.00  0.00     0.062 C 
ATOM     18  C   UNK d   0      -6.066   5.079 -36.376  0.00  0.00    -0.013 A 
ATOM     19  C   UNK d   0      -3.831   7.951 -36.428  0.00  0.00     0.067 A 
ATOM     20  N   UNK d   0      -2.659   7.387 -36.128  0.00  0.00    -0.248 NA
ATOM     21  C   UNK d   0      -3.692   9.379 -36.193  0.00  0.00    -0.011 A 
ATOM     22  C   UNK d   0      -1.763   8.342 -35.712  0.00  0.00     0.066 A 
ATOM     23  C   UNK d   0      -0.487   7.896 -35.403  0.00  0.00     0.062 C 
ATOM     24  C   UNK d   0      -2.481   9.600 -35.770  0.00  0.00    -0.020 A 
ATOM     25  C   UNK d   0       0.031   6.600 -35.549  0.00  0.00     0.041 A 
ATOM     26  N   UNK d   0      -0.510   5.397 -35.322  0.00  0.00    -0.355 N 
ATOM     27  C   UNK d   0       1.349   6.451 -36.035  0.00  0.00    -0.022 A 
ATOM     28  C   UNK d   0       0.418   4.484 -35.651  0.00  0.00     0.042 A 
ATOM     29  H   UNK d   0      -1.528   5.194 -34.909  0.00  0.00     0.166 HD
ATOM     30  C   UNK d   0       0.385   3.081 -35.616  0.00  0.00     0.062 C 
ATOM     31  C   UNK d   0       1.601   5.115 -36.103  0.00  0.00    -0.013 A 
ATOM     32  C   UNK d   0      -0.663   2.242 -35.961  0.00  0.00     0.066 A 
BRANCH   8  33
ATOM     33  C   UNK d   0      -2.680  -0.746 -36.683  0.00  0.00     0.151 C 
BRANCH  33  34
ATOM     34  C   UNK d   0      -2.750  -1.099 -38.112  0.00  0.00     0.143 C 
ATOM     35  O   UNK d   0      -2.037  -0.524 -38.946  0.00  0.00    -0.650 OA
BRANCH  34  36
ATOM     36  O   UNK d   0      -3.622  -2.081 -38.523  0.00  0.00    -0.776 OA
ATOM     37  H   UNK d   0      -4.541  -2.202 -38.074  0.00  0.00     0.167 HD
ENDBRANCH  34  36
ENDBRANCH  33  34
ENDBRANCH   8  33
BRANCH  31  38
ATOM     38  C   UNK d   0       2.883   4.473 -36.581  0.00  0.00     0.151 C 
BRANCH  38  39
ATOM     39  C   UNK d   0       3.798   4.174 -35.500  0.00  0.00     0.143 C 
ATOM     40  O   UNK d   0       5.032   4.228 -35.639  0.00  0.00    -0.650 OA
BRANCH  39  41
ATOM     41  O   UNK d   0       3.291   3.811 -34.253  0.00  0.00    -0.776 OA
ATOM     42  H   UNK d   0       3.787   4.169 -33.431  0.00  0.00     0.167 HD
ENDBRANCH  39  41
ENDBRANCH  38  39
ENDBRANCH  31  38
BRANCH  27  43
ATOM     43  C   UNK d   0       2.352   7.507 -36.425  0.00  0.00     0.052 C 
BRANCH  43  44
ATOM     44  C   UNK d   0       2.876   8.282 -35.260  0.00  0.00     0.115 C 
BRANCH  44  45
ATOM     45  C   UNK d   0       4.019   7.505 -34.713  0.00  0.00     0.139 C 
ATOM     46  O   UNK d   0       3.973   7.155 -33.507  0.00  0.00    -0.650 OA
BRANCH  45  47
ATOM     47  O   UNK d   0       5.114   7.153 -35.471  0.00  0.00    -0.776 OA
ATOM     48  H   UNK d   0       5.122   6.330 -36.096  0.00  0.00     0.167 HD
ENDBRANCH  45  47
ENDBRANCH  44  45
ENDBRANCH  43  44
ENDBRANCH  27  43
BRANCH  24  49
ATOM     49  C   UNK d   0      -1.901  10.915 -35.447  0.00  0.00     0.052 C 
BRANCH  49  50
ATOM     50  C   UNK d   0      -0.924  11.334 -36.516  0.00  0.00     0.115 C 
BRANCH  50  51
ATOM     51  C   UNK d   0      -1.350  12.384 -37.431  0.00  0.00     0.139 C 
ATOM     52  O   UNK d   0      -2.114  12.167 -38.401  0.00  0.00    -0.650 OA
BRANCH  51  53
ATOM     53  O   UNK d   0      -0.903  13.683 -37.241  0.00  0.00    -0.776 OA
ATOM     54  H   UNK d   0      -1.291  14.409 -37.818  0.00  0.00     0.167 HD
ENDBRANCH  51  53
ENDBRANCH  50  51
ENDBRANCH  49  50
ENDBRANCH  24  49
BRANCH  21  55
ATOM     55  C   UNK d   0      -4.783  10.373 -36.419  0.00  0.00     0.151 C 
BRANCH  55  56
ATOM     56  C   UNK d   0      -5.241  10.380 -37.817  0.00  0.00     0.143 C 
ATOM     57  O   UNK d   0      -6.447  10.365 -38.132  0.00  0.00    -0.650 OA
BRANCH  56  58
ATOM     58  O   UNK d   0      -4.271  10.405 -38.818  0.00  0.00    -0.776 OA
ATOM     59  H   UNK d   0      -3.540  11.129 -38.699  0.00  0.00     0.167 HD
ENDBRANCH  56  58
ENDBRANCH  55  56
ENDBRANCH  21  55
BRANCH  18  60
ATOM     60  C   UNK d   0      -7.358   5.693 -35.897  0.00  0.00     0.151 C 
BRANCH  60  61
ATOM     61  C   UNK d   0      -7.068   6.266 -34.575  0.00  0.00     0.143 C 
ATOM     62  O   UNK d   0      -7.261   7.427 -34.210  0.00  0.00    -0.650 OA
BRANCH  61  63
ATOM     63  O   UNK d   0      -6.506   5.366 -33.638  0.00  0.00    -0.776 OA
ATOM     64  H   UNK d   0      -7.054   4.625 -33.238  0.00  0.00     0.167 HD
ENDBRANCH  61  63
ENDBRANCH  60  61
ENDBRANCH  18  60
BRANCH  14  65
ATOM     65  C   UNK d   0      -6.881   2.709 -36.174  0.00  0.00     0.052 C 
BRANCH  65  66
ATOM     66  C   UNK d   0      -6.746   2.093 -34.827  0.00  0.00     0.115 C 
BRANCH  66  67
ATOM     67  C   UNK d   0      -6.426   0.698 -34.711  0.00  0.00     0.139 C 
ATOM     68  O   UNK d   0      -6.383   0.174 -33.537  0.00  0.00    -0.650 OA
BRANCH  67  69
ATOM     69  O   UNK d   0      -6.143  -0.201 -35.738  0.00  0.00    -0.776 OA
ATOM     70  H   UNK d   0      -5.159  -0.239 -36.042  0.00  0.00     0.167 HD
ENDBRANCH  67  69
ENDBRANCH  66  67
ENDBRANCH  65  66
ENDBRANCH  14  65
ENDBRANCH   6   7
ENDBRANCH   5   6
ENDBRANCH   2   5
TORSDOF 28
ENDMDL
MODEL 10
REMARK VINA RESULT:      -7.2      2.343      7.658
REMARK  28 active torsions:
REMARK  status: ('A' for Active; 'I' for Inactive)
REMARK    1  A    between atoms: C_2  and  O_3 
REMARK    2  A    between atoms: C_2  and  C_4 
REMARK    3  A    between atoms: C_4  and  C_5 
REMARK    4  A    between atoms: C_5  and  C_6 
REMARK    5  A    between atoms: C_7  and  C_8 
REMARK    6  A    between atoms: C_8  and  C_9 
REMARK    7  A    between atoms: C_9  and  O_11 
REMARK    8  A    between atoms: C_28  and  C_29 
REMARK    9  A    between atoms: C_29  and  C_30 
REMARK   10  A    between atoms: C_30  and  O_32 
REMARK   11  A    between atoms: C_33  and  C_34 
REMARK   12  A    between atoms: C_34  and  C_35 
REMARK   13  A    between atoms: C_35  and  C_36 
REMARK   14  A    between atoms: C_36  and  O_38 
REMARK   15  A    between atoms: C_39  and  C_40 
REMARK   16  A    between atoms: C_40  and  C_41 
REMARK   17  A    between atoms: C_41  and  C_42 
REMARK   18  A    between atoms: C_42  and  O_44 
REMARK   19  A    between atoms: C_45  and  C_46 
REMARK   20  A    between atoms: C_46  and  C_47 
REMARK   21  A    between atoms: C_47  and  O_49 
REMARK   22  A    between atoms: C_50  and  C_51 
REMARK   23  A    between atoms: C_51  and  C_52 
REMARK   24  A    between atoms: C_52  and  O_54 
REMARK   25  A    between atoms: C_55  and  C_56 
REMARK   26  A    between atoms: C_56  and  C_57 
REMARK   27  A    between atoms: C_57  and  C_58 
REMARK   28  A    between atoms: C_58  and  O_60 
ROOT
ATOM      1  O   UNK d   0       4.579   3.241 -35.380  0.00  0.00    -0.650 OA
ATOM      2  C   UNK d   0       4.420   4.478 -35.290  0.00  0.00     0.139 C 
ENDROOT
BRANCH   2   3
ATOM      3  O   UNK d   0       5.517   5.304 -35.351  0.00  0.00    -0.776 OA
ATOM      4  H   UNK d   0       5.410   6.318 -35.431  0.00  0.00     0.167 HD
ENDBRANCH   2   3
BRANCH   2   5
ATOM      5  C   UNK d   0       3.053   5.047 -35.116  0.00  0.00     0.115 C 
BRANCH   5   6
ATOM      6  C   UNK d   0       3.120   6.549 -35.062  0.00  0.00     0.052 C 
BRANCH   6   7
ATOM      7  C   UNK d   0       1.757   7.194 -35.131  0.00  0.00    -0.020 A 
ATOM      8  C   UNK d   0       1.425   8.402 -34.751  0.00  0.00    -0.011 A 
ATOM      9  C   UNK d   0       0.004   8.572 -35.003  0.00  0.00     0.067 A 
ATOM     10  C   UNK d   0      -0.935   9.604 -34.847  0.00  0.00     0.062 C 
ATOM     11  N   UNK d   0      -0.451   7.417 -35.531  0.00  0.00    -0.248 NA
ATOM     12  C   UNK d   0      -2.215   9.677 -35.408  0.00  0.00     0.041 A 
ATOM     13  N   UNK d   0      -3.178   8.745 -35.543  0.00  0.00    -0.355 N 
ATOM     14  C   UNK d   0      -2.628  10.881 -36.005  0.00  0.00    -0.022 A 
ATOM     15  C   UNK d   0      -4.188   9.325 -36.217  0.00  0.00     0.042 A 
ATOM     16  H   UNK d   0      -3.152   7.704 -35.152  0.00  0.00     0.166 HD
ATOM     17  C   UNK d   0      -5.433   8.805 -36.624  0.00  0.00     0.062 C 
ATOM     18  C   UNK d   0      -3.880  10.665 -36.525  0.00  0.00    -0.013 A 
ATOM     19  C   UNK d   0      -5.713   7.596 -37.208  0.00  0.00     0.067 A 
ATOM     20  N   UNK d   0      -4.729   6.693 -37.230  0.00  0.00    -0.248 NA
ATOM     21  C   UNK d   0      -6.861   6.994 -37.867  0.00  0.00    -0.011 A 
ATOM     22  C   UNK d   0      -5.150   5.545 -37.856  0.00  0.00     0.066 A 
ATOM     23  C   UNK d   0      -4.235   4.504 -37.916  0.00  0.00     0.062 C 
ATOM     24  C   UNK d   0      -6.523   5.796 -38.247  0.00  0.00    -0.020 A 
ATOM     25  C   UNK d   0      -2.959   4.447 -37.335  0.00  0.00     0.041 A 
ATOM     26  N   UNK d   0      -1.996   5.368 -37.214  0.00  0.00    -0.355 N 
ATOM     27  C   UNK d   0      -2.546   3.238 -36.731  0.00  0.00    -0.022 A 
ATOM     28  C   UNK d   0      -0.983   4.789 -36.549  0.00  0.00     0.042 A 
ATOM     29  H   UNK d   0      -2.019   6.410 -37.617  0.00  0.00     0.166 HD
ATOM     30  C   UNK d   0       0.264   5.292 -36.146  0.00  0.00     0.062 C 
ATOM     31  C   UNK d   0      -1.298   3.447 -36.231  0.00  0.00    -0.013 A 
ATOM     32  C   UNK d   0       0.555   6.547 -35.635  0.00  0.00     0.066 A 
BRANCH   8  33
ATOM     33  C   UNK d   0       2.315   9.421 -34.166  0.00  0.00     0.151 C 
BRANCH  33  34
ATOM     34  C   UNK d   0       2.216   9.489 -32.697  0.00  0.00     0.143 C 
ATOM     35  O   UNK d   0       1.400  10.243 -32.148  0.00  0.00    -0.650 OA
BRANCH  34  36
ATOM     36  O   UNK d   0       3.044   8.705 -31.927  0.00  0.00    -0.776 OA
ATOM     37  H   UNK d   0       2.922   8.641 -30.907  0.00  0.00     0.167 HD
ENDBRANCH  34  36
ENDBRANCH  33  34
ENDBRANCH   8  33
BRANCH  31  38
ATOM     38  C   UNK d   0      -0.457   2.438 -35.484  0.00  0.00     0.151 C 
BRANCH  38  39
ATOM     39  C   UNK d   0      -0.270   2.784 -34.091  0.00  0.00     0.143 C 
ATOM     40  O   UNK d   0      -1.180   3.274 -33.399  0.00  0.00    -0.650 OA
BRANCH  39  41
ATOM     41  O   UNK d   0       0.969   2.565 -33.490  0.00  0.00    -0.776 OA
ATOM     42  H   UNK d   0       1.169   1.610 -33.178  0.00  0.00     0.167 HD
ENDBRANCH  39  41
ENDBRANCH  38  39
ENDBRANCH  31  38
BRANCH  27  43
ATOM     43  C   UNK d   0      -3.279   1.925 -36.618  0.00  0.00     0.052 C 
BRANCH  43  44
ATOM     44  C   UNK d   0      -2.763   0.879 -37.552  0.00  0.00     0.115 C 
BRANCH  44  45
ATOM     45  C   UNK d   0      -3.453   1.092 -38.851  0.00  0.00     0.139 C 
ATOM     46  O   UNK d   0      -2.807   1.633 -39.783  0.00  0.00    -0.650 OA
BRANCH  45  47
ATOM     47  O   UNK d   0      -4.761   0.719 -39.073  0.00  0.00    -0.776 OA
ATOM     48  H   UNK d   0      -5.025  -0.214 -39.428  0.00  0.00     0.167 HD
ENDBRANCH  45  47
ENDBRANCH  44  45
ENDBRANCH  43  44
ENDBRANCH  27  43
BRANCH  24  49
ATOM     49  C   UNK d   0      -7.398   4.821 -38.921  0.00  0.00     0.052 C 
BRANCH  49  50
ATOM     50  C   UNK d   0      -6.584   3.908 -39.802  0.00  0.00     0.115 C 
BRANCH  50  51
ATOM     51  C   UNK d   0      -6.415   4.303 -41.194  0.00  0.00     0.139 C 
ATOM     52  O   UNK d   0      -5.519   5.095 -41.568  0.00  0.00    -0.650 OA
BRANCH  51  53
ATOM     53  O   UNK d   0      -7.271   3.796 -42.160  0.00  0.00    -0.776 OA
ATOM     54  H   UNK d   0      -7.980   4.402 -42.532  0.00  0.00     0.167 HD
ENDBRANCH  51  53
ENDBRANCH  50  51
ENDBRANCH  49  50
ENDBRANCH  24  49
BRANCH  21  55
ATOM     55  C   UNK d   0      -8.175   7.679 -38.043  0.00  0.00     0.151 C 
BRANCH  55  56
ATOM     56  C   UNK d   0      -8.764   8.083 -36.757  0.00  0.00     0.143 C 
ATOM     57  O   UNK d   0      -9.125   7.261 -35.892  0.00  0.00    -0.650 OA
BRANCH  56  58
ATOM     58  O   UNK d   0      -8.916   9.447 -36.512  0.00  0.00    -0.776 OA
ATOM     59  H   UNK d   0      -9.237   9.686 -35.557  0.00  0.00     0.167 HD
ENDBRANCH  56  58
ENDBRANCH  55  56
ENDBRANCH  21  55
BRANCH  18  60
ATOM     60  C   UNK d   0      -4.699  11.693 -37.265  0.00  0.00     0.151 C 
BRANCH  60  61
ATOM     61  C   UNK d   0      -5.571  12.316 -36.258  0.00  0.00     0.143 C 
ATOM     62  O   UNK d   0      -5.272  13.213 -35.469  0.00  0.00    -0.650 OA
BRANCH  61  63
ATOM     63  O   UNK d   0      -6.893  11.812 -36.211  0.00  0.00    -0.776 OA
ATOM     64  H   UNK d   0      -7.504  11.884 -37.006  0.00  0.00     0.167 HD
ENDBRANCH  61  63
ENDBRANCH  60  61
ENDBRANCH  18  60
BRANCH  14  65
ATOM     65  C   UNK d   0      -1.978  12.235 -36.036  0.00  0.00     0.052 C 
BRANCH  65  66
ATOM     66  C   UNK d   0      -1.140  12.451 -37.246  0.00  0.00     0.115 C 
BRANCH  66  67
ATOM     67  C   UNK d   0      -1.241  13.686 -37.971  0.00  0.00     0.139 C 
ATOM     68  O   UNK d   0      -0.743  14.748 -37.446  0.00  0.00    -0.650 OA
BRANCH  67  69
ATOM     69  O   UNK d   0      -1.831  13.898 -39.217  0.00  0.00    -0.776 OA
ATOM     70  H   UNK d   0      -2.081  13.049 -39.744  0.00  0.00     0.167 HD
ENDBRANCH  67  69
ENDBRANCH  66  67
ENDBRANCH  65  66
ENDBRANCH  14  65
ENDBRANCH   6   7
ENDBRANCH   5   6
ENDBRANCH   2   5
TORSDOF 28
ENDMDL
MODEL 11
REMARK VINA RESULT:      -7.2      2.240      7.861
REMARK  28 active torsions:
REMARK  status: ('A' for Active; 'I' for Inactive)
REMARK    1  A    between atoms: C_2  and  O_3 
REMARK    2  A    between atoms: C_2  and  C_4 
REMARK    3  A    between atoms: C_4  and  C_5 
REMARK    4  A    between atoms: C_5  and  C_6 
REMARK    5  A    between atoms: C_7  and  C_8 
REMARK    6  A    between atoms: C_8  and  C_9 
REMARK    7  A    between atoms: C_9  and  O_11 
REMARK    8  A    between atoms: C_28  and  C_29 
REMARK    9  A    between atoms: C_29  and  C_30 
REMARK   10  A    between atoms: C_30  and  O_32 
REMARK   11  A    between atoms: C_33  and  C_34 
REMARK   12  A    between atoms: C_34  and  C_35 
REMARK   13  A    between atoms: C_35  and  C_36 
REMARK   14  A    between atoms: C_36  and  O_38 
REMARK   15  A    between atoms: C_39  and  C_40 
REMARK   16  A    between atoms: C_40  and  C_41 
REMARK   17  A    between atoms: C_41  and  C_42 
REMARK   18  A    between atoms: C_42  and  O_44 
REMARK   19  A    between atoms: C_45  and  C_46 
REMARK   20  A    between atoms: C_46  and  C_47 
REMARK   21  A    between atoms: C_47  and  O_49 
REMARK   22  A    between atoms: C_50  and  C_51 
REMARK   23  A    between atoms: C_51  and  C_52 
REMARK   24  A    between atoms: C_52  and  O_54 
REMARK   25  A    between atoms: C_55  and  C_56 
REMARK   26  A    between atoms: C_56  and  C_57 
REMARK   27  A    between atoms: C_57  and  C_58 
REMARK   28  A    between atoms: C_58  and  O_60 
ROOT
ATOM      1  O   UNK d   0      -5.425  -1.807 -35.604  0.00  0.00    -0.650 OA
ATOM      2  C   UNK d   0      -4.474  -1.022 -35.818  0.00  0.00     0.139 C 
ENDROOT
BRANCH   2   3
ATOM      3  O   UNK d   0      -3.188  -1.504 -35.810  0.00  0.00    -0.776 OA
ATOM      4  H   UNK d   0      -2.997  -2.494 -35.644  0.00  0.00     0.167 HD
ENDBRANCH   2   3
BRANCH   2   5
ATOM      5  C   UNK d   0      -4.740   0.422 -36.078  0.00  0.00     0.115 C 
BRANCH   5   6
ATOM      6  C   UNK d   0      -3.776   0.948 -37.107  0.00  0.00     0.052 C 
BRANCH   6   7
ATOM      7  C   UNK d   0      -3.041   2.180 -36.638  0.00  0.00    -0.020 A 
ATOM      8  C   UNK d   0      -1.844   2.243 -36.113  0.00  0.00    -0.011 A 
ATOM      9  C   UNK d   0      -1.564   3.637 -35.811  0.00  0.00     0.067 A 
ATOM     10  C   UNK d   0      -0.487   4.361 -35.275  0.00  0.00     0.062 C 
ATOM     11  N   UNK d   0      -2.647   4.352 -36.179  0.00  0.00    -0.248 NA
ATOM     12  C   UNK d   0      -0.292   5.745 -35.317  0.00  0.00     0.041 A 
ATOM     13  N   UNK d   0      -1.147   6.767 -35.122  0.00  0.00    -0.355 N 
ATOM     14  C   UNK d   0       0.976   6.244 -35.668  0.00  0.00    -0.022 A 
ATOM     15  C   UNK d   0      -0.456   7.901 -35.349  0.00  0.00     0.042 A 
ATOM     16  H   UNK d   0      -2.212   6.689 -34.812  0.00  0.00     0.166 HD
ATOM     17  C   UNK d   0      -0.866   9.248 -35.284  0.00  0.00     0.062 C 
ATOM     18  C   UNK d   0       0.878   7.613 -35.694  0.00  0.00    -0.013 A 
ATOM     19  C   UNK d   0      -2.010   9.826 -35.772  0.00  0.00     0.067 A 
ATOM     20  N   UNK d   0      -2.971   9.001 -36.194  0.00  0.00    -0.248 NA
ATOM     21  C   UNK d   0      -2.488  11.182 -35.981  0.00  0.00    -0.011 A 
ATOM     22  C   UNK d   0      -4.042   9.720 -36.666  0.00  0.00     0.066 A 
ATOM     23  C   UNK d   0      -5.133   8.984 -37.104  0.00  0.00     0.062 C 
ATOM     24  C   UNK d   0      -3.676  11.113 -36.508  0.00  0.00    -0.020 A 
ATOM     25  C   UNK d   0      -5.315   7.594 -37.042  0.00  0.00     0.041 A 
ATOM     26  N   UNK d   0      -4.469   6.578 -37.250  0.00  0.00    -0.355 N 
ATOM     27  C   UNK d   0      -6.586   7.094 -36.684  0.00  0.00    -0.022 A 
ATOM     28  C   UNK d   0      -5.157   5.446 -37.033  0.00  0.00     0.042 A 
ATOM     29  H   UNK d   0      -3.401   6.657 -37.572  0.00  0.00     0.166 HD
ATOM     30  C   UNK d   0      -4.766   4.100 -37.103  0.00  0.00     0.062 C 
ATOM     31  C   UNK d   0      -6.495   5.736 -36.676  0.00  0.00    -0.013 A 
ATOM     32  C   UNK d   0      -3.571   3.534 -36.685  0.00  0.00     0.066 A 
BRANCH   8  33
ATOM     33  C   UNK d   0      -0.928   1.116 -35.859  0.00  0.00     0.151 C 
BRANCH  33  34
ATOM     34  C   UNK d   0      -0.840   0.763 -34.431  0.00  0.00     0.143 C 
ATOM     35  O   UNK d   0      -1.831   0.339 -33.818  0.00  0.00    -0.650 OA
BRANCH  34  36
ATOM     36  O   UNK d   0       0.358   0.908 -33.771  0.00  0.00    -0.776 OA
ATOM     37  H   UNK d   0       0.598   0.319 -32.962  0.00  0.00     0.167 HD
ENDBRANCH  34  36
ENDBRANCH  33  34
ENDBRANCH   8  33
BRANCH  31  38
ATOM     38  C   UNK d   0      -7.607   4.770 -36.337  0.00  0.00     0.151 C 
BRANCH  38  39
ATOM     39  C   UNK d   0      -7.756   4.564 -34.912  0.00  0.00     0.143 C 
ATOM     40  O   UNK d   0      -8.749   3.998 -34.422  0.00  0.00    -0.650 OA
BRANCH  39  41
ATOM     41  O   UNK d   0      -6.757   5.008 -34.046  0.00  0.00    -0.776 OA
ATOM     42  H   UNK d   0      -5.802   5.037 -34.418  0.00  0.00     0.167 HD
ENDBRANCH  39  41
ENDBRANCH  38  39
ENDBRANCH  31  38
BRANCH  27  43
ATOM     43  C   UNK d   0      -7.854   7.844 -36.361  0.00  0.00     0.052 C 
BRANCH  43  44
ATOM     44  C   UNK d   0      -7.640   8.995 -35.433  0.00  0.00     0.115 C 
BRANCH  44  45
ATOM     45  C   UNK d   0      -7.853   8.477 -34.057  0.00  0.00     0.139 C 
ATOM     46  O   UNK d   0      -6.864   8.012 -33.439  0.00  0.00    -0.650 OA
BRANCH  45  47
ATOM     47  O   UNK d   0      -9.083   8.491 -33.436  0.00  0.00    -0.776 OA
ATOM     48  H   UNK d   0      -9.235   8.120 -32.484  0.00  0.00     0.167 HD
ENDBRANCH  45  47
ENDBRANCH  44  45
ENDBRANCH  43  44
ENDBRANCH  27  43
BRANCH  24  49
ATOM     49  C   UNK d   0      -4.543  12.255 -36.848  0.00  0.00     0.052 C 
BRANCH  49  50
ATOM     50  C   UNK d   0      -5.629  12.414 -35.816  0.00  0.00     0.115 C 
BRANCH  50  51
ATOM     51  C   UNK d   0      -6.967  12.724 -36.301  0.00  0.00     0.139 C 
ATOM     52  O   UNK d   0      -8.005  12.420 -35.667  0.00  0.00    -0.650 OA
BRANCH  51  53
ATOM     53  O   UNK d   0      -7.122  13.381 -37.513  0.00  0.00    -0.776 OA
ATOM     54  H   UNK d   0      -7.124  12.831 -38.354  0.00  0.00     0.167 HD
ENDBRANCH  51  53
ENDBRANCH  50  51
ENDBRANCH  49  50
ENDBRANCH  24  49
BRANCH  21  55
ATOM     55  C   UNK d   0      -1.709  12.406 -35.627  0.00  0.00     0.151 C 
BRANCH  55  56
ATOM     56  C   UNK d   0      -1.107  13.038 -36.812  0.00  0.00     0.143 C 
ATOM     57  O   UNK d   0      -0.961  12.439 -37.895  0.00  0.00    -0.650 OA
BRANCH  56  58
ATOM     58  O   UNK d   0      -0.690  14.363 -36.699  0.00  0.00    -0.776 OA
ATOM     59  H   UNK d   0      -0.858  14.796 -35.772  0.00  0.00     0.167 HD
ENDBRANCH  56  58
ENDBRANCH  55  56
ENDBRANCH  21  55
BRANCH  18  60
ATOM     60  C   UNK d   0       2.007   8.554 -36.034  0.00  0.00     0.151 C 
BRANCH  60  61
ATOM     61  C   UNK d   0       2.836   8.644 -34.822  0.00  0.00     0.143 C 
ATOM     62  O   UNK d   0       4.048   8.443 -34.735  0.00  0.00    -0.650 OA
BRANCH  61  63
ATOM     63  O   UNK d   0       2.141   9.004 -33.642  0.00  0.00    -0.776 OA
ATOM     64  H   UNK d   0       1.548   9.815 -33.617  0.00  0.00     0.167 HD
ENDBRANCH  61  63
ENDBRANCH  60  61
ENDBRANCH  18  60
BRANCH  14  65
ATOM     65  C   UNK d   0       2.283   5.536 -35.883  0.00  0.00     0.052 C 
BRANCH  65  66
ATOM     66  C   UNK d   0       2.893   5.044 -34.618  0.00  0.00     0.115 C 
BRANCH  66  67
ATOM     67  C   UNK d   0       4.301   5.211 -34.394  0.00  0.00     0.139 C 
ATOM     68  O   UNK d   0       4.764   5.001 -33.213  0.00  0.00    -0.650 OA
BRANCH  67  69
ATOM     69  O   UNK d   0       5.273   5.587 -35.320  0.00  0.00    -0.776 OA
ATOM     70  H   UNK d   0       6.204   5.166 -35.188  0.00  0.00     0.167 HD
ENDBRANCH  67  69
ENDBRANCH  66  67
ENDBRANCH  65  66
ENDBRANCH  14  65
ENDBRANCH   6   7
ENDBRANCH   5   6
ENDBRANCH   2   5
TORSDOF 28
ENDMDL
MODEL 12
REMARK VINA RESULT:      -7.2      2.043      8.272
REMARK  28 active torsions:
REMARK  status: ('A' for Active; 'I' for Inactive)
REMARK    1  A    between atoms: C_2  and  O_3 
REMARK    2  A    between atoms: C_2  and  C_4 
REMARK    3  A    between atoms: C_4  and  C_5 
REMARK    4  A    between atoms: C_5  and  C_6 
REMARK    5  A    between atoms: C_7  and  C_8 
REMARK    6  A    between atoms: C_8  and  C_9 
REMARK    7  A    between atoms: C_9  and  O_11 
REMARK    8  A    between atoms: C_28  and  C_29 
REMARK    9  A    between atoms: C_29  and  C_30 
REMARK   10  A    between atoms: C_30  and  O_32 
REMARK   11  A    between atoms: C_33  and  C_34 
REMARK   12  A    between atoms: C_34  and  C_35 
REMARK   13  A    between atoms: C_35  and  C_36 
REMARK   14  A    between atoms: C_36  and  O_38 
REMARK   15  A    between atoms: C_39  and  C_40 
REMARK   16  A    between atoms: C_40  and  C_41 
REMARK   17  A    between atoms: C_41  and  C_42 
REMARK   18  A    between atoms: C_42  and  O_44 
REMARK   19  A    between atoms: C_45  and  C_46 
REMARK   20  A    between atoms: C_46  and  C_47 
REMARK   21  A    between atoms: C_47  and  O_49 
REMARK   22  A    between atoms: C_50  and  C_51 
REMARK   23  A    between atoms: C_51  and  C_52 
REMARK   24  A    between atoms: C_52  and  O_54 
REMARK   25  A    between atoms: C_55  and  C_56 
REMARK   26  A    between atoms: C_56  and  C_57 
REMARK   27  A    between atoms: C_57  and  C_58 
REMARK   28  A    between atoms: C_58  and  O_60 
ROOT
ATOM      1  O   UNK d   0      -8.738  14.121 -36.185  0.00  0.00    -0.650 OA
ATOM      2  C   UNK d   0      -7.811  14.178 -35.346  0.00  0.00     0.139 C 
ENDROOT
BRANCH   2   3
ATOM      3  O   UNK d   0      -7.972  14.942 -34.216  0.00  0.00    -0.776 OA
ATOM      4  H   UNK d   0      -8.384  15.876 -34.265  0.00  0.00     0.167 HD
ENDBRANCH   2   3
BRANCH   2   5
ATOM      5  C   UNK d   0      -6.547  13.422 -35.575  0.00  0.00     0.115 C 
BRANCH   5   6
ATOM      6  C   UNK d   0      -6.769  12.340 -36.597  0.00  0.00     0.052 C 
BRANCH   6   7
ATOM      7  C   UNK d   0      -6.718  10.955 -35.998  0.00  0.00    -0.020 A 
ATOM      8  C   UNK d   0      -7.706  10.273 -35.477  0.00  0.00    -0.011 A 
ATOM      9  C   UNK d   0      -7.176   8.999 -35.023  0.00  0.00     0.067 A 
ATOM     10  C   UNK d   0      -7.695   7.844 -34.416  0.00  0.00     0.062 C 
ATOM     11  N   UNK d   0      -5.855   8.991 -35.301  0.00  0.00    -0.248 NA
ATOM     12  C   UNK d   0      -7.077   6.595 -34.304  0.00  0.00     0.041 A 
ATOM     13  N   UNK d   0      -5.811   6.257 -33.990  0.00  0.00    -0.355 N 
ATOM     14  C   UNK d   0      -7.819   5.438 -34.605  0.00  0.00    -0.022 A 
ATOM     15  C   UNK d   0      -5.730   4.917 -34.092  0.00  0.00     0.042 A 
ATOM     16  H   UNK d   0      -4.998   6.950 -33.683  0.00  0.00     0.166 HD
ATOM     17  C   UNK d   0      -4.641   4.049 -33.875  0.00  0.00     0.062 C 
ATOM     18  C   UNK d   0      -6.969   4.368 -34.477  0.00  0.00    -0.013 A 
ATOM     19  C   UNK d   0      -3.339   4.178 -34.287  0.00  0.00     0.067 A 
ATOM     20  N   UNK d   0      -2.980   5.360 -34.793  0.00  0.00    -0.248 NA
ATOM     21  C   UNK d   0      -2.170   3.316 -34.339  0.00  0.00    -0.011 A 
ATOM     22  C   UNK d   0      -1.660   5.334 -35.174  0.00  0.00     0.066 A 
ATOM     23  C   UNK d   0      -1.143   6.515 -35.684  0.00  0.00     0.062 C 
ATOM     24  C   UNK d   0      -1.192   3.998 -34.863  0.00  0.00    -0.020 A 
ATOM     25  C   UNK d   0      -1.777   7.764 -35.777  0.00  0.00     0.041 A 
ATOM     26  N   UNK d   0      -3.031   8.101 -36.103  0.00  0.00    -0.355 N 
ATOM     27  C   UNK d   0      -1.033   8.923 -35.469  0.00  0.00    -0.022 A 
ATOM     28  C   UNK d   0      -3.112   9.437 -36.010  0.00  0.00     0.042 A 
ATOM     29  H   UNK d   0      -3.844   7.404 -36.421  0.00  0.00     0.166 HD
ATOM     30  C   UNK d   0      -4.186  10.314 -36.233  0.00  0.00     0.062 C 
ATOM     31  C   UNK d   0      -1.870   9.987 -35.614  0.00  0.00    -0.013 A 
ATOM     32  C   UNK d   0      -5.517  10.140 -35.889  0.00  0.00     0.066 A 
BRANCH   8  33
ATOM     33  C   UNK d   0      -9.111  10.703 -35.357  0.00  0.00     0.151 C 
BRANCH  33  34
ATOM     34  C   UNK d   0      -9.826  10.682 -36.646  0.00  0.00     0.143 C 
ATOM     35  O   UNK d   0     -10.036   9.615 -37.240  0.00  0.00    -0.650 OA
BRANCH  34  36
ATOM     36  O   UNK d   0     -10.264  11.865 -37.195  0.00  0.00    -0.776 OA
ATOM     37  H   UNK d   0      -9.601  12.563 -37.558  0.00  0.00     0.167 HD
ENDBRANCH  34  36
ENDBRANCH  33  34
ENDBRANCH   8  33
BRANCH  31  38
ATOM     38  C   UNK d   0      -1.518  11.437 -35.377  0.00  0.00     0.151 C 
BRANCH  38  39
ATOM     39  C   UNK d   0      -1.485  12.213 -36.599  0.00  0.00     0.143 C 
ATOM     40  O   UNK d   0      -2.303  13.119 -36.834  0.00  0.00    -0.650 OA
BRANCH  39  41
ATOM     41  O   UNK d   0      -0.505  11.946 -37.555  0.00  0.00    -0.776 OA
ATOM     42  H   UNK d   0      -0.805  11.946 -38.535  0.00  0.00     0.167 HD
ENDBRANCH  39  41
ENDBRANCH  38  39
ENDBRANCH  31  38
BRANCH  27  43
ATOM     43  C   UNK d   0       0.412   9.053 -35.055  0.00  0.00     0.052 C 
BRANCH  43  44
ATOM     44  C   UNK d   0       1.372   8.678 -36.137  0.00  0.00     0.115 C 
BRANCH  44  45
ATOM     45  C   UNK d   0       2.602   8.187 -35.461  0.00  0.00     0.139 C 
ATOM     46  O   UNK d   0       3.562   7.813 -36.179  0.00  0.00    -0.650 OA
BRANCH  45  47
ATOM     47  O   UNK d   0       2.729   8.131 -34.090  0.00  0.00    -0.776 OA
ATOM     48  H   UNK d   0       1.932   8.264 -33.447  0.00  0.00     0.167 HD
ENDBRANCH  45  47
ENDBRANCH  44  45
ENDBRANCH  43  44
ENDBRANCH  27  43
BRANCH  24  49
ATOM     49  C   UNK d   0       0.187   3.521 -35.067  0.00  0.00     0.052 C 
BRANCH  49  50
ATOM     50  C   UNK d   0       1.124   4.200 -34.101  0.00  0.00     0.115 C 
BRANCH  50  51
ATOM     51  C   UNK d   0       2.388   4.691 -34.635  0.00  0.00     0.139 C 
ATOM     52  O   UNK d   0       3.334   5.062 -33.901  0.00  0.00    -0.650 OA
BRANCH  51  53
ATOM     53  O   UNK d   0       2.572   4.761 -36.008  0.00  0.00    -0.776 OA
ATOM     54  H   UNK d   0       2.917   3.946 -36.483  0.00  0.00     0.167 HD
ENDBRANCH  51  53
ENDBRANCH  50  51
ENDBRANCH  49  50
ENDBRANCH  24  49
BRANCH  21  55
ATOM     55  C   UNK d   0      -2.151   1.904 -33.856  0.00  0.00     0.151 C 
BRANCH  55  56
ATOM     56  C   UNK d   0      -2.791   0.986 -34.811  0.00  0.00     0.143 C 
ATOM     57  O   UNK d   0      -3.798   0.309 -34.524  0.00  0.00    -0.650 OA
BRANCH  56  58
ATOM     58  O   UNK d   0      -2.234   0.882 -36.084  0.00  0.00    -0.776 OA
ATOM     59  H   UNK d   0      -2.405  -0.021 -36.563  0.00  0.00     0.167 HD
ENDBRANCH  56  58
ENDBRANCH  55  56
ENDBRANCH  21  55
BRANCH  18  60
ATOM     60  C   UNK d   0      -7.349   2.928 -34.716  0.00  0.00     0.151 C 
BRANCH  60  61
ATOM     61  C   UNK d   0      -6.759   2.565 -36.014  0.00  0.00     0.143 C 
ATOM     62  O   UNK d   0      -6.815   3.210 -37.061  0.00  0.00    -0.650 OA
BRANCH  61  63
ATOM     63  O   UNK d   0      -6.055   1.337 -36.033  0.00  0.00    -0.776 OA
ATOM     64  H   UNK d   0      -6.121   0.714 -36.819  0.00  0.00     0.167 HD
ENDBRANCH  61  63
ENDBRANCH  60  61
ENDBRANCH  18  60
BRANCH  14  65
ATOM     65  C   UNK d   0      -9.280   5.261 -34.907  0.00  0.00     0.052 C 
BRANCH  65  66
ATOM     66  C   UNK d   0      -9.555   5.059 -36.355  0.00  0.00     0.115 C 
BRANCH  66  67
ATOM     67  C   UNK d   0      -9.530   6.184 -37.247  0.00  0.00     0.139 C 
ATOM     68  O   UNK d   0      -8.395   6.581 -37.702  0.00  0.00    -0.650 OA
BRANCH  67  69
ATOM     69  O   UNK d   0     -10.613   6.933 -37.706  0.00  0.00    -0.776 OA
ATOM     70  H   UNK d   0     -11.094   7.505 -36.997  0.00  0.00     0.167 HD
ENDBRANCH  67  69
ENDBRANCH  66  67
ENDBRANCH  65  66
ENDBRANCH  14  65
ENDBRANCH   6   7
ENDBRANCH   5   6
ENDBRANCH   2   5
TORSDOF 28
ENDMDL
MODEL 13
REMARK VINA RESULT:      -7.2      1.963      8.114
REMARK  28 active torsions:
REMARK  status: ('A' for Active; 'I' for Inactive)
REMARK    1  A    between atoms: C_2  and  O_3 
REMARK    2  A    between atoms: C_2  and  C_4 
REMARK    3  A    between atoms: C_4  and  C_5 
REMARK    4  A    between atoms: C_5  and  C_6 
REMARK    5  A    between atoms: C_7  and  C_8 
REMARK    6  A    between atoms: C_8  and  C_9 
REMARK    7  A    between atoms: C_9  and  O_11 
REMARK    8  A    between atoms: C_28  and  C_29 
REMARK    9  A    between atoms: C_29  and  C_30 
REMARK   10  A    between atoms: C_30  and  O_32 
REMARK   11  A    between atoms: C_33  and  C_34 
REMARK   12  A    between atoms: C_34  and  C_35 
REMARK   13  A    between atoms: C_35  and  C_36 
REMARK   14  A    between atoms: C_36  and  O_38 
REMARK   15  A    between atoms: C_39  and  C_40 
REMARK   16  A    between atoms: C_40  and  C_41 
REMARK   17  A    between atoms: C_41  and  C_42 
REMARK   18  A    between atoms: C_42  and  O_44 
REMARK   19  A    between atoms: C_45  and  C_46 
REMARK   20  A    between atoms: C_46  and  C_47 
REMARK   21  A    between atoms: C_47  and  O_49 
REMARK   22  A    between atoms: C_50  and  C_51 
REMARK   23  A    between atoms: C_51  and  C_52 
REMARK   24  A    between atoms: C_52  and  O_54 
REMARK   25  A    between atoms: C_55  and  C_56 
REMARK   26  A    between atoms: C_56  and  C_57 
REMARK   27  A    between atoms: C_57  and  C_58 
REMARK   28  A    between atoms: C_58  and  O_60 
ROOT
ATOM      1  O   UNK d   0      -2.813  11.937 -38.757  0.00  0.00    -0.650 OA
ATOM      2  C   UNK d   0      -1.927  12.733 -38.377  0.00  0.00     0.139 C 
ENDROOT
BRANCH   2   3
ATOM      3  O   UNK d   0      -1.638  13.836 -39.144  0.00  0.00    -0.776 OA
ATOM      4  H   UNK d   0      -1.122  14.628 -38.756  0.00  0.00     0.167 HD
ENDBRANCH   2   3
BRANCH   2   5
ATOM      5  C   UNK d   0      -1.192  12.484 -37.104  0.00  0.00     0.115 C 
BRANCH   5   6
ATOM      6  C   UNK d   0      -2.121  12.642 -35.931  0.00  0.00     0.052 C 
BRANCH   6   7
ATOM      7  C   UNK d   0      -3.061  11.471 -35.771  0.00  0.00    -0.020 A 
ATOM      8  C   UNK d   0      -4.363  11.504 -35.654  0.00  0.00    -0.011 A 
ATOM      9  C   UNK d   0      -4.832  10.135 -35.515  0.00  0.00     0.067 A 
ATOM     10  C   UNK d   0      -6.076   9.500 -35.378  0.00  0.00     0.062 C 
ATOM     11  N   UNK d   0      -3.746   9.334 -35.553  0.00  0.00    -0.248 NA
ATOM     12  C   UNK d   0      -6.354   8.138 -35.538  0.00  0.00     0.041 A 
ATOM     13  N   UNK d   0      -5.687   7.042 -35.127  0.00  0.00    -0.355 N 
ATOM     14  C   UNK d   0      -7.479   7.757 -36.292  0.00  0.00    -0.022 A 
ATOM     15  C   UNK d   0      -6.355   5.977 -35.608  0.00  0.00     0.042 A 
ATOM     16  H   UNK d   0      -4.773   7.022 -34.494  0.00  0.00     0.166 HD
ATOM     17  C   UNK d   0      -6.093   4.599 -35.476  0.00  0.00     0.062 C 
ATOM     18  C   UNK d   0      -7.484   6.385 -36.344  0.00  0.00    -0.013 A 
ATOM     19  C   UNK d   0      -4.902   3.931 -35.602  0.00  0.00     0.067 A 
ATOM     20  N   UNK d   0      -3.795   4.676 -35.664  0.00  0.00    -0.248 NA
ATOM     21  C   UNK d   0      -4.489   2.542 -35.707  0.00  0.00    -0.011 A 
ATOM     22  C   UNK d   0      -2.688   3.875 -35.804  0.00  0.00     0.066 A 
ATOM     23  C   UNK d   0      -1.461   4.520 -35.843  0.00  0.00     0.062 C 
ATOM     24  C   UNK d   0      -3.193   2.516 -35.829  0.00  0.00    -0.020 A 
ATOM     25  C   UNK d   0      -1.202   5.888 -35.667  0.00  0.00     0.041 A 
ATOM     26  N   UNK d   0      -1.857   6.977 -36.088  0.00  0.00    -0.355 N 
ATOM     27  C   UNK d   0      -0.075   6.269 -34.906  0.00  0.00    -0.022 A 
ATOM     28  C   UNK d   0      -1.188   8.041 -35.617  0.00  0.00     0.042 A 
ATOM     29  H   UNK d   0      -2.769   6.995 -36.734  0.00  0.00     0.166 HD
ATOM     30  C   UNK d   0      -1.431   9.417 -35.749  0.00  0.00     0.062 C 
ATOM     31  C   UNK d   0      -0.059   7.629 -34.869  0.00  0.00    -0.013 A 
ATOM     32  C   UNK d   0      -2.649  10.077 -35.706  0.00  0.00     0.066 A 
BRANCH   8  33
ATOM     33  C   UNK d   0      -5.222  12.703 -35.654  0.00  0.00     0.151 C 
BRANCH  33  34
ATOM     34  C   UNK d   0      -6.106  12.771 -36.831  0.00  0.00     0.143 C 
ATOM     35  O   UNK d   0      -7.141  13.453 -36.811  0.00  0.00    -0.650 OA
BRANCH  34  36
ATOM     36  O   UNK d   0      -5.776  12.066 -37.966  0.00  0.00    -0.776 OA
ATOM     37  H   UNK d   0      -5.035  12.392 -38.600  0.00  0.00     0.167 HD
ENDBRANCH  34  36
ENDBRANCH  33  34
ENDBRANCH   8  33
BRANCH  31  38
ATOM     38  C   UNK d   0       0.958   8.489 -34.156  0.00  0.00     0.151 C 
BRANCH  38  39
ATOM     39  C   UNK d   0       2.181   8.656 -34.911  0.00  0.00     0.143 C 
ATOM     40  O   UNK d   0       3.274   8.888 -34.365  0.00  0.00    -0.650 OA
BRANCH  39  41
ATOM     41  O   UNK d   0       2.148   8.556 -36.302  0.00  0.00    -0.776 OA
ATOM     42  H   UNK d   0       2.587   7.728 -36.716  0.00  0.00     0.167 HD
ENDBRANCH  39  41
ENDBRANCH  38  39
ENDBRANCH  31  38
BRANCH  27  43
ATOM     43  C   UNK d   0       0.962   5.406 -34.232  0.00  0.00     0.052 C 
BRANCH  43  44
ATOM     44  C   UNK d   0       2.034   4.936 -35.161  0.00  0.00     0.115 C 
BRANCH  44  45
ATOM     45  C   UNK d   0       3.022   4.200 -34.330  0.00  0.00     0.139 C 
ATOM     46  O   UNK d   0       4.201   4.111 -34.754  0.00  0.00    -0.650 OA
BRANCH  45  47
ATOM     47  O   UNK d   0       2.700   3.622 -33.122  0.00  0.00    -0.776 OA
ATOM     48  H   UNK d   0       1.791   3.772 -32.654  0.00  0.00     0.167 HD
ENDBRANCH  45  47
ENDBRANCH  44  45
ENDBRANCH  43  44
ENDBRANCH  27  43
BRANCH  24  49
ATOM     49  C   UNK d   0      -2.354   1.309 -35.927  0.00  0.00     0.052 C 
BRANCH  49  50
ATOM     50  C   UNK d   0      -1.737   0.989 -34.589  0.00  0.00     0.115 C 
BRANCH  50  51
ATOM     51  C   UNK d   0      -0.287   0.860 -34.539  0.00  0.00     0.139 C 
ATOM     52  O   UNK d   0       0.292   0.003 -33.830  0.00  0.00    -0.650 OA
BRANCH  51  53
ATOM     53  O   UNK d   0       0.504   1.711 -35.296  0.00  0.00    -0.776 OA
ATOM     54  H   UNK d   0       0.177   1.978 -36.208  0.00  0.00     0.167 HD
ENDBRANCH  51  53
ENDBRANCH  50  51
ENDBRANCH  49  50
ENDBRANCH  24  49
BRANCH  21  55
ATOM     55  C   UNK d   0      -5.432   1.385 -35.670  0.00  0.00     0.151 C 
BRANCH  55  56
ATOM     56  C   UNK d   0      -6.016   1.108 -36.991  0.00  0.00     0.143 C 
ATOM     57  O   UNK d   0      -7.054   1.665 -37.400  0.00  0.00    -0.650 OA
BRANCH  56  58
ATOM     58  O   UNK d   0      -5.369   0.181 -37.806  0.00  0.00    -0.776 OA
ATOM     59  H   UNK d   0      -5.887  -0.082 -38.664  0.00  0.00     0.167 HD
ENDBRANCH  56  58
ENDBRANCH  55  56
ENDBRANCH  21  55
BRANCH  18  60
ATOM     60  C   UNK d   0      -8.516   5.552 -37.063  0.00  0.00     0.151 C 
BRANCH  60  61
ATOM     61  C   UNK d   0      -7.934   5.231 -38.375  0.00  0.00     0.143 C 
ATOM     62  O   UNK d   0      -7.310   5.992 -39.116  0.00  0.00    -0.650 OA
BRANCH  61  63
ATOM     63  O   UNK d   0      -8.124   3.897 -38.809  0.00  0.00    -0.776 OA
ATOM     64  H   UNK d   0      -8.128   3.666 -39.787  0.00  0.00     0.167 HD
ENDBRANCH  61  63
ENDBRANCH  60  61
ENDBRANCH  18  60
BRANCH  14  65
ATOM     65  C   UNK d   0      -8.591   8.580 -36.878  0.00  0.00     0.052 C 
BRANCH  65  66
ATOM     66  C   UNK d   0      -9.682   8.859 -35.905  0.00  0.00     0.115 C 
BRANCH  66  67
ATOM     67  C   UNK d   0      -9.850  10.188 -35.388  0.00  0.00     0.139 C 
ATOM     68  O   UNK d   0     -10.866  10.430 -34.637  0.00  0.00    -0.650 OA
BRANCH  67  69
ATOM     69  O   UNK d   0      -9.029  11.296 -35.598  0.00  0.00    -0.776 OA
ATOM     70  H   UNK d   0      -9.476  12.215 -35.467  0.00  0.00     0.167 HD
ENDBRANCH  67  69
ENDBRANCH  66  67
ENDBRANCH  65  66
ENDBRANCH  14  65
ENDBRANCH   6   7
ENDBRANCH   5   6
ENDBRANCH   2   5
TORSDOF 28
ENDMDL
MODEL 14
REMARK VINA RESULT:      -7.1      2.089      8.398
REMARK  28 active torsions:
REMARK  status: ('A' for Active; 'I' for Inactive)
REMARK    1  A    between atoms: C_2  and  O_3 
REMARK    2  A    between atoms: C_2  and  C_4 
REMARK    3  A    between atoms: C_4  and  C_5 
REMARK    4  A    between atoms: C_5  and  C_6 
REMARK    5  A    between atoms: C_7  and  C_8 
REMARK    6  A    between atoms: C_8  and  C_9 
REMARK    7  A    between atoms: C_9  and  O_11 
REMARK    8  A    between atoms: C_28  and  C_29 
REMARK    9  A    between atoms: C_29  and  C_30 
REMARK   10  A    between atoms: C_30  and  O_32 
REMARK   11  A    between atoms: C_33  and  C_34 
REMARK   12  A    between atoms: C_34  and  C_35 
REMARK   13  A    between atoms: C_35  and  C_36 
REMARK   14  A    between atoms: C_36  and  O_38 
REMARK   15  A    between atoms: C_39  and  C_40 
REMARK   16  A    between atoms: C_40  and  C_41 
REMARK   17  A    between atoms: C_41  and  C_42 
REMARK   18  A    between atoms: C_42  and  O_44 
REMARK   19  A    between atoms: C_45  and  C_46 
REMARK   20  A    between atoms: C_46  and  C_47 
REMARK   21  A    between atoms: C_47  and  O_49 
REMARK   22  A    between atoms: C_50  and  C_51 
REMARK   23  A    between atoms: C_51  and  C_52 
REMARK   24  A    between atoms: C_52  and  O_54 
REMARK   25  A    between atoms: C_55  and  C_56 
REMARK   26  A    between atoms: C_56  and  C_57 
REMARK   27  A    between atoms: C_57  and  C_58 
REMARK   28  A    between atoms: C_58  and  O_60 
ROOT
ATOM      1  O   UNK d   0      -9.757  13.039 -37.961  0.00  0.00    -0.650 OA
ATOM      2  C   UNK d   0      -9.697  11.847 -37.587  0.00  0.00     0.139 C 
ENDROOT
BRANCH   2   3
ATOM      3  O   UNK d   0     -10.853  11.193 -37.233  0.00  0.00    -0.776 OA
ATOM      4  H   UNK d   0     -11.583  11.665 -36.696  0.00  0.00     0.167 HD
ENDBRANCH   2   3
BRANCH   2   5
ATOM      5  C   UNK d   0      -8.382  11.147 -37.525  0.00  0.00     0.115 C 
BRANCH   5   6
ATOM      6  C   UNK d   0      -7.773  11.308 -36.159  0.00  0.00     0.052 C 
BRANCH   6   7
ATOM      7  C   UNK d   0      -7.362   9.990 -35.547  0.00  0.00    -0.020 A 
ATOM      8  C   UNK d   0      -8.117   9.143 -34.895  0.00  0.00    -0.011 A 
ATOM      9  C   UNK d   0      -7.282   8.025 -34.488  0.00  0.00     0.067 A 
ATOM     10  C   UNK d   0      -7.473   6.816 -33.801  0.00  0.00     0.062 C 
ATOM     11  N   UNK d   0      -6.032   8.278 -34.930  0.00  0.00    -0.248 NA
ATOM     12  C   UNK d   0      -6.597   5.726 -33.746  0.00  0.00     0.041 A 
ATOM     13  N   UNK d   0      -5.261   5.669 -33.587  0.00  0.00    -0.355 N 
ATOM     14  C   UNK d   0      -7.112   4.430 -33.932  0.00  0.00    -0.022 A 
ATOM     15  C   UNK d   0      -4.914   4.372 -33.676  0.00  0.00     0.042 A 
ATOM     16  H   UNK d   0      -4.580   6.528 -33.396  0.00  0.00     0.166 HD
ATOM     17  C   UNK d   0      -3.650   3.756 -33.581  0.00  0.00     0.062 C 
ATOM     18  C   UNK d   0      -6.047   3.564 -33.892  0.00  0.00    -0.013 A 
ATOM     19  C   UNK d   0      -2.462   4.132 -34.155  0.00  0.00     0.067 A 
ATOM     20  N   UNK d   0      -2.421   5.340 -34.722  0.00  0.00    -0.248 NA
ATOM     21  C   UNK d   0      -1.153   3.528 -34.338  0.00  0.00    -0.011 A 
ATOM     22  C   UNK d   0      -1.180   5.569 -35.265  0.00  0.00     0.066 A 
ATOM     23  C   UNK d   0      -0.985   6.808 -35.856  0.00  0.00     0.062 C 
ATOM     24  C   UNK d   0      -0.409   4.372 -34.992  0.00  0.00    -0.020 A 
ATOM     25  C   UNK d   0      -1.873   7.895 -35.890  0.00  0.00     0.041 A 
ATOM     26  N   UNK d   0      -3.199   7.952 -36.063  0.00  0.00    -0.355 N 
ATOM     27  C   UNK d   0      -1.356   9.195 -35.699  0.00  0.00    -0.022 A 
ATOM     28  C   UNK d   0      -3.547   9.247 -35.984  0.00  0.00     0.042 A 
ATOM     29  H   UNK d   0      -3.881   7.090 -36.265  0.00  0.00     0.166 HD
ATOM     30  C   UNK d   0      -4.799   9.874 -36.086  0.00  0.00     0.062 C 
ATOM     31  C   UNK d   0      -2.409  10.056 -35.756  0.00  0.00    -0.013 A 
ATOM     32  C   UNK d   0      -6.013   9.445 -35.575  0.00  0.00     0.066 A 
BRANCH   8  33
ATOM     33  C   UNK d   0      -9.557   9.280 -34.608  0.00  0.00     0.151 C 
BRANCH  33  34
ATOM     34  C   UNK d   0     -10.368   8.229 -35.247  0.00  0.00     0.143 C 
ATOM     35  O   UNK d   0     -10.722   8.328 -36.430  0.00  0.00    -0.650 OA
BRANCH  34  36
ATOM     36  O   UNK d   0     -10.738   7.123 -34.516  0.00  0.00    -0.776 OA
ATOM     37  H   UNK d   0     -11.135   6.290 -34.971  0.00  0.00     0.167 HD
ENDBRANCH  34  36
ENDBRANCH  33  34
ENDBRANCH   8  33
BRANCH  31  38
ATOM     38  C   UNK d   0      -2.343  11.556 -35.591  0.00  0.00     0.151 C 
BRANCH  38  39
ATOM     39  C   UNK d   0      -1.932  12.237 -36.800  0.00  0.00     0.143 C 
ATOM     40  O   UNK d   0      -0.937  12.982 -36.840  0.00  0.00    -0.650 OA
BRANCH  39  41
ATOM     41  O   UNK d   0      -2.669  12.059 -37.971  0.00  0.00    -0.776 OA
ATOM     42  H   UNK d   0      -2.657  12.831 -38.645  0.00  0.00     0.167 HD
ENDBRANCH  39  41
ENDBRANCH  38  39
ENDBRANCH  31  38
BRANCH  27  43
ATOM     43  C   UNK d   0       0.068   9.636 -35.471  0.00  0.00     0.052 C 
BRANCH  43  44
ATOM     44  C   UNK d   0       0.649   9.121 -34.195  0.00  0.00     0.115 C 
BRANCH  44  45
ATOM     45  C   UNK d   0       1.825   8.292 -34.569  0.00  0.00     0.139 C 
ATOM     46  O   UNK d   0       2.484   8.623 -35.585  0.00  0.00    -0.650 OA
BRANCH  45  47
ATOM     47  O   UNK d   0       2.220   7.187 -33.846  0.00  0.00    -0.776 OA
ATOM     48  H   UNK d   0       2.514   6.302 -34.291  0.00  0.00     0.167 HD
ENDBRANCH  45  47
ENDBRANCH  44  45
ENDBRANCH  43  44
ENDBRANCH  27  43
BRANCH  24  49
ATOM     49  C   UNK d   0       1.005   4.181 -35.359  0.00  0.00     0.052 C 
BRANCH  49  50
ATOM     50  C   UNK d   0       1.203   4.428 -36.832  0.00  0.00     0.115 C 
BRANCH  50  51
ATOM     51  C   UNK d   0       2.101   5.510 -37.210  0.00  0.00     0.139 C 
ATOM     52  O   UNK d   0       1.921   6.212 -38.233  0.00  0.00    -0.650 OA
BRANCH  51  53
ATOM     53  O   UNK d   0       3.208   5.790 -36.423  0.00  0.00    -0.776 OA
ATOM     54  H   UNK d   0       3.816   5.031 -36.171  0.00  0.00     0.167 HD
ENDBRANCH  51  53
ENDBRANCH  50  51
ENDBRANCH  49  50
ENDBRANCH  24  49
BRANCH  21  55
ATOM     55  C   UNK d   0      -0.782   2.172 -33.837  0.00  0.00     0.151 C 
BRANCH  55  56
ATOM     56  C   UNK d   0      -1.323   1.101 -34.689  0.00  0.00     0.143 C 
ATOM     57  O   UNK d   0      -2.154   0.268 -34.279  0.00  0.00    -0.650 OA
BRANCH  56  58
ATOM     58  O   UNK d   0      -0.875   1.033 -36.007  0.00  0.00    -0.776 OA
ATOM     59  H   UNK d   0      -0.546   0.097 -36.308  0.00  0.00     0.167 HD
ENDBRANCH  56  58
ENDBRANCH  55  56
ENDBRANCH  21  55
BRANCH  18  60
ATOM     60  C   UNK d   0      -6.144   2.068 -34.058  0.00  0.00     0.151 C 
BRANCH  60  61
ATOM     61  C   UNK d   0      -5.841   1.797 -35.471  0.00  0.00     0.143 C 
ATOM     62  O   UNK d   0      -4.769   1.979 -36.049  0.00  0.00    -0.650 OA
BRANCH  61  63
ATOM     63  O   UNK d   0      -6.916   1.271 -36.228  0.00  0.00    -0.776 OA
ATOM     64  H   UNK d   0      -7.830   1.686 -36.187  0.00  0.00     0.167 HD
ENDBRANCH  61  63
ENDBRANCH  60  61
ENDBRANCH  18  60
BRANCH  14  65
ATOM     65  C   UNK d   0      -8.529   3.944 -34.045  0.00  0.00     0.052 C 
BRANCH  65  66
ATOM     66  C   UNK d   0      -8.953   3.710 -35.452  0.00  0.00     0.115 C 
BRANCH  66  67
ATOM     67  C   UNK d   0      -8.479   4.579 -36.492  0.00  0.00     0.139 C 
ATOM     68  O   UNK d   0      -7.541   4.158 -37.264  0.00  0.00    -0.650 OA
BRANCH  67  69
ATOM     69  O   UNK d   0      -8.915   5.870 -36.790  0.00  0.00    -0.776 OA
ATOM     70  H   UNK d   0      -8.355   6.382 -37.486  0.00  0.00     0.167 HD
ENDBRANCH  67  69
ENDBRANCH  66  67
ENDBRANCH  65  66
ENDBRANCH  14  65
ENDBRANCH   6   7
ENDBRANCH   5   6
ENDBRANCH   2   5
TORSDOF 28
ENDMDL
MODEL 15
REMARK VINA RESULT:      -7.1      3.454      7.448
REMARK  28 active torsions:
REMARK  status: ('A' for Active; 'I' for Inactive)
REMARK    1  A    between atoms: C_2  and  O_3 
REMARK    2  A    between atoms: C_2  and  C_4 
REMARK    3  A    between atoms: C_4  and  C_5 
REMARK    4  A    between atoms: C_5  and  C_6 
REMARK    5  A    between atoms: C_7  and  C_8 
REMARK    6  A    between atoms: C_8  and  C_9 
REMARK    7  A    between atoms: C_9  and  O_11 
REMARK    8  A    between atoms: C_28  and  C_29 
REMARK    9  A    between atoms: C_29  and  C_30 
REMARK   10  A    between atoms: C_30  and  O_32 
REMARK   11  A    between atoms: C_33  and  C_34 
REMARK   12  A    between atoms: C_34  and  C_35 
REMARK   13  A    between atoms: C_35  and  C_36 
REMARK   14  A    between atoms: C_36  and  O_38 
REMARK   15  A    between atoms: C_39  and  C_40 
REMARK   16  A    between atoms: C_40  and  C_41 
REMARK   17  A    between atoms: C_41  and  C_42 
REMARK   18  A    between atoms: C_42  and  O_44 
REMARK   19  A    between atoms: C_45  and  C_46 
REMARK   20  A    between atoms: C_46  and  C_47 
REMARK   21  A    between atoms: C_47  and  O_49 
REMARK   22  A    between atoms: C_50  and  C_51 
REMARK   23  A    between atoms: C_51  and  C_52 
REMARK   24  A    between atoms: C_52  and  O_54 
REMARK   25  A    between atoms: C_55  and  C_56 
REMARK   26  A    between atoms: C_56  and  C_57 
REMARK   27  A    between atoms: C_57  and  C_58 
REMARK   28  A    between atoms: C_58  and  O_60 
ROOT
ATOM      1  O   UNK d   0      -1.241  12.661 -35.619  0.00  0.00    -0.650 OA
ATOM      2  C   UNK d   0      -1.569  12.024 -36.644  0.00  0.00     0.139 C 
ENDROOT
BRANCH   2   3
ATOM      3  O   UNK d   0      -0.863  12.210 -37.808  0.00  0.00    -0.776 OA
ATOM      4  H   UNK d   0      -0.445  11.420 -38.304  0.00  0.00     0.167 HD
ENDBRANCH   2   3
BRANCH   2   5
ATOM      5  C   UNK d   0      -2.716  11.072 -36.599  0.00  0.00     0.115 C 
BRANCH   5   6
ATOM      6  C   UNK d   0      -2.629  10.216 -35.365  0.00  0.00     0.052 C 
BRANCH   6   7
ATOM      7  C   UNK d   0      -2.002   8.869 -35.636  0.00  0.00    -0.020 A 
ATOM      8  C   UNK d   0      -0.764   8.506 -35.414  0.00  0.00    -0.011 A 
ATOM      9  C   UNK d   0      -0.623   7.123 -35.841  0.00  0.00     0.067 A 
ATOM     10  C   UNK d   0       0.405   6.168 -35.854  0.00  0.00     0.062 C 
ATOM     11  N   UNK d   0      -1.823   6.726 -36.314  0.00  0.00    -0.248 NA
ATOM     12  C   UNK d   0       0.277   4.789 -36.050  0.00  0.00     0.041 A 
ATOM     13  N   UNK d   0      -0.467   4.082 -36.922  0.00  0.00    -0.355 N 
ATOM     14  C   UNK d   0       0.970   3.913 -35.194  0.00  0.00    -0.022 A 
ATOM     15  C   UNK d   0      -0.269   2.781 -36.637  0.00  0.00     0.042 A 
ATOM     16  H   UNK d   0      -1.103   4.494 -37.736  0.00  0.00     0.166 HD
ATOM     17  C   UNK d   0      -0.801   1.623 -37.240  0.00  0.00     0.062 C 
ATOM     18  C   UNK d   0       0.625   2.635 -35.559  0.00  0.00    -0.013 A 
ATOM     19  C   UNK d   0      -2.093   1.363 -37.618  0.00  0.00     0.067 A 
ATOM     20  N   UNK d   0      -2.945   2.392 -37.607  0.00  0.00    -0.248 NA
ATOM     21  C   UNK d   0      -2.842   0.192 -38.042  0.00  0.00    -0.011 A 
ATOM     22  C   UNK d   0      -4.197   1.978 -37.991  0.00  0.00     0.066 A 
ATOM     23  C   UNK d   0      -5.176   2.958 -38.061  0.00  0.00     0.062 C 
ATOM     24  C   UNK d   0      -4.073   0.558 -38.255  0.00  0.00    -0.020 A 
ATOM     25  C   UNK d   0      -5.024   4.341 -37.873  0.00  0.00     0.041 A 
ATOM     26  N   UNK d   0      -4.296   5.043 -36.996  0.00  0.00    -0.355 N 
ATOM     27  C   UNK d   0      -5.716   5.219 -38.735  0.00  0.00    -0.022 A 
ATOM     28  C   UNK d   0      -4.498   6.341 -37.273  0.00  0.00     0.042 A 
ATOM     29  H   UNK d   0      -3.666   4.627 -36.172  0.00  0.00     0.166 HD
ATOM     30  C   UNK d   0      -3.984   7.503 -36.676  0.00  0.00     0.062 C 
ATOM     31  C   UNK d   0      -5.389   6.487 -38.363  0.00  0.00    -0.013 A 
ATOM     32  C   UNK d   0      -2.696   7.730 -36.218  0.00  0.00     0.066 A 
BRANCH   8  33
ATOM     33  C   UNK d   0       0.312   9.335 -34.842  0.00  0.00     0.151 C 
BRANCH  33  34
ATOM     34  C   UNK d   0       0.585   9.019 -33.428  0.00  0.00     0.143 C 
ATOM     35  O   UNK d   0       0.184   9.762 -32.521  0.00  0.00    -0.650 OA
BRANCH  34  36
ATOM     36  O   UNK d   0       1.297   7.884 -33.115  0.00  0.00    -0.776 OA
ATOM     37  H   UNK d   0       1.069   7.324 -32.282  0.00  0.00     0.167 HD
ENDBRANCH  34  36
ENDBRANCH  33  34
ENDBRANCH   8  33
BRANCH  31  38
ATOM     38  C   UNK d   0      -5.880   7.761 -39.010  0.00  0.00     0.151 C 
BRANCH  38  39
ATOM     39  C   UNK d   0      -4.988   8.246 -40.042  0.00  0.00     0.143 C 
ATOM     40  O   UNK d   0      -4.238   9.223 -39.867  0.00  0.00    -0.650 OA
BRANCH  39  41
ATOM     41  O   UNK d   0      -4.959   7.606 -41.280  0.00  0.00    -0.776 OA
ATOM     42  H   UNK d   0      -4.411   6.742 -41.340  0.00  0.00     0.167 HD
ENDBRANCH  39  41
ENDBRANCH  38  39
ENDBRANCH  31  38
BRANCH  27  43
ATOM     43  C   UNK d   0      -6.656   4.903 -39.872  0.00  0.00     0.052 C 
BRANCH  43  44
ATOM     44  C   UNK d   0      -8.031   4.535 -39.416  0.00  0.00     0.115 C 
BRANCH  44  45
ATOM     45  C   UNK d   0      -8.481   3.418 -40.286  0.00  0.00     0.139 C 
ATOM     46  O   UNK d   0      -8.067   3.387 -41.472  0.00  0.00    -0.650 OA
BRANCH  45  47
ATOM     47  O   UNK d   0      -9.324   2.420 -39.846  0.00  0.00    -0.776 OA
ATOM     48  H   UNK d   0     -10.300   2.328 -40.171  0.00  0.00     0.167 HD
ENDBRANCH  45  47
ENDBRANCH  44  45
ENDBRANCH  43  44
ENDBRANCH  27  43
BRANCH  24  49
ATOM     49  C   UNK d   0      -5.165  -0.306 -38.735  0.00  0.00     0.052 C 
BRANCH  49  50
ATOM     50  C   UNK d   0      -6.148  -0.575 -37.625  0.00  0.00     0.115 C 
BRANCH  50  51
ATOM     51  C   UNK d   0      -6.019  -1.840 -36.914  0.00  0.00     0.139 C 
ATOM     52  O   UNK d   0      -6.598  -2.067 -35.826  0.00  0.00    -0.650 OA
BRANCH  51  53
ATOM     53  O   UNK d   0      -5.227  -2.847 -37.444  0.00  0.00    -0.776 OA
ATOM     54  H   UNK d   0      -5.281  -3.762 -37.031  0.00  0.00     0.167 HD
ENDBRANCH  51  53
ENDBRANCH  50  51
ENDBRANCH  49  50
ENDBRANCH  24  49
BRANCH  21  55
ATOM     55  C   UNK d   0      -2.248  -1.169 -38.194  0.00  0.00     0.151 C 
BRANCH  55  56
ATOM     56  C   UNK d   0      -1.851  -1.745 -36.900  0.00  0.00     0.143 C 
ATOM     57  O   UNK d   0      -2.678  -2.125 -36.048  0.00  0.00    -0.650 OA
BRANCH  56  58
ATOM     58  O   UNK d   0      -0.488  -1.863 -36.634  0.00  0.00    -0.776 OA
ATOM     59  H   UNK d   0      -0.083  -1.089 -36.078  0.00  0.00     0.167 HD
ENDBRANCH  56  58
ENDBRANCH  55  56
ENDBRANCH  21  55
BRANCH  18  60
ATOM     60  C   UNK d   0       1.134   1.379 -34.896  0.00  0.00     0.151 C 
BRANCH  60  61
ATOM     61  C   UNK d   0      -0.032   0.766 -34.243  0.00  0.00     0.143 C 
ATOM     62  O   UNK d   0      -0.203  -0.428 -33.998  0.00  0.00    -0.650 OA
BRANCH  61  63
ATOM     63  O   UNK d   0      -1.055   1.669 -33.864  0.00  0.00    -0.776 OA
ATOM     64  H   UNK d   0      -0.964   2.656 -34.033  0.00  0.00     0.167 HD
ENDBRANCH  61  63
ENDBRANCH  60  61
ENDBRANCH  18  60
BRANCH  14  65
ATOM     65  C   UNK d   0       1.998   4.187 -34.133  0.00  0.00     0.052 C 
BRANCH  65  66
ATOM     66  C   UNK d   0       3.374   4.329 -34.680  0.00  0.00     0.115 C 
BRANCH  66  67
ATOM     67  C   UNK d   0       4.243   5.348 -34.163  0.00  0.00     0.139 C 
ATOM     68  O   UNK d   0       3.738   6.493 -33.865  0.00  0.00    -0.650 OA
BRANCH  67  69
ATOM     69  O   UNK d   0       5.615   5.262 -33.930  0.00  0.00    -0.776 OA
ATOM     70  H   UNK d   0       6.103   6.158 -33.789  0.00  0.00     0.167 HD
ENDBRANCH  67  69
ENDBRANCH  66  67
ENDBRANCH  65  66
ENDBRANCH  14  65
ENDBRANCH   6   7
ENDBRANCH   5   6
ENDBRANCH   2   5
TORSDOF 28
ENDMDL
MODEL 16
REMARK VINA RESULT:      -7.0      1.944      7.709
REMARK  28 active torsions:
REMARK  status: ('A' for Active; 'I' for Inactive)
REMARK    1  A    between atoms: C_2  and  O_3 
REMARK    2  A    between atoms: C_2  and  C_4 
REMARK    3  A    between atoms: C_4  and  C_5 
REMARK    4  A    between atoms: C_5  and  C_6 
REMARK    5  A    between atoms: C_7  and  C_8 
REMARK    6  A    between atoms: C_8  and  C_9 
REMARK    7  A    between atoms: C_9  and  O_11 
REMARK    8  A    between atoms: C_28  and  C_29 
REMARK    9  A    between atoms: C_29  and  C_30 
REMARK   10  A    between atoms: C_30  and  O_32 
REMARK   11  A    between atoms: C_33  and  C_34 
REMARK   12  A    between atoms: C_34  and  C_35 
REMARK   13  A    between atoms: C_35  and  C_36 
REMARK   14  A    between atoms: C_36  and  O_38 
REMARK   15  A    between atoms: C_39  and  C_40 
REMARK   16  A    between atoms: C_40  and  C_41 
REMARK   17  A    between atoms: C_41  and  C_42 
REMARK   18  A    between atoms: C_42  and  O_44 
REMARK   19  A    between atoms: C_45  and  C_46 
REMARK   20  A    between atoms: C_46  and  C_47 
REMARK   21  A    between atoms: C_47  and  O_49 
REMARK   22  A    between atoms: C_50  and  C_51 
REMARK   23  A    between atoms: C_51  and  C_52 
REMARK   24  A    between atoms: C_52  and  O_54 
REMARK   25  A    between atoms: C_55  and  C_56 
REMARK   26  A    between atoms: C_56  and  C_57 
REMARK   27  A    between atoms: C_57  and  C_58 
REMARK   28  A    between atoms: C_58  and  O_60 
ROOT
ATOM      1  O   UNK d   0      -8.376  12.359 -38.032  0.00  0.00    -0.650 OA
ATOM      2  C   UNK d   0      -7.723  12.577 -36.987  0.00  0.00     0.139 C 
ENDROOT
BRANCH   2   3
ATOM      3  O   UNK d   0      -8.355  12.496 -35.769  0.00  0.00    -0.776 OA
ATOM      4  H   UNK d   0      -9.353  12.698 -35.678  0.00  0.00     0.167 HD
ENDBRANCH   2   3
BRANCH   2   5
ATOM      5  C   UNK d   0      -6.275  12.921 -37.067  0.00  0.00     0.115 C 
BRANCH   5   6
ATOM      6  C   UNK d   0      -5.608  12.664 -35.743  0.00  0.00     0.052 C 
BRANCH   6   7
ATOM      7  C   UNK d   0      -4.733  11.433 -35.763  0.00  0.00    -0.020 A 
ATOM      8  C   UNK d   0      -3.444  11.373 -35.979  0.00  0.00    -0.011 A 
ATOM      9  C   UNK d   0      -3.045   9.978 -35.908  0.00  0.00     0.067 A 
ATOM     10  C   UNK d   0      -1.844   9.261 -36.022  0.00  0.00     0.062 C 
ATOM     11  N   UNK d   0      -4.156   9.256 -35.651  0.00  0.00    -0.248 NA
ATOM     12  C   UNK d   0      -1.610   7.934 -35.646  0.00  0.00     0.041 A 
ATOM     13  N   UNK d   0      -2.353   6.822 -35.808  0.00  0.00    -0.355 N 
ATOM     14  C   UNK d   0      -0.444   7.627 -34.920  0.00  0.00    -0.022 A 
ATOM     15  C   UNK d   0      -1.692   5.820 -35.197  0.00  0.00     0.042 A 
ATOM     16  H   UNK d   0      -3.316   6.744 -36.359  0.00  0.00     0.166 HD
ATOM     17  C   UNK d   0      -2.021   4.456 -35.066  0.00  0.00     0.062 C 
ATOM     18  C   UNK d   0      -0.491   6.287 -34.628  0.00  0.00    -0.013 A 
ATOM     19  C   UNK d   0      -3.225   3.887 -34.738  0.00  0.00     0.067 A 
ATOM     20  N   UNK d   0      -4.291   4.691 -34.727  0.00  0.00    -0.248 NA
ATOM     21  C   UNK d   0      -3.685   2.561 -34.360  0.00  0.00    -0.011 A 
ATOM     22  C   UNK d   0      -5.415   3.987 -34.368  0.00  0.00     0.066 A 
ATOM     23  C   UNK d   0      -6.607   4.696 -34.353  0.00  0.00     0.062 C 
ATOM     24  C   UNK d   0      -4.966   2.627 -34.141  0.00  0.00    -0.020 A 
ATOM     25  C   UNK d   0      -6.823   6.025 -34.747  0.00  0.00     0.041 A 
ATOM     26  N   UNK d   0      -6.092   7.133 -34.573  0.00  0.00    -0.355 N 
ATOM     27  C   UNK d   0      -7.991   6.331 -35.479  0.00  0.00    -0.022 A 
ATOM     28  C   UNK d   0      -6.753   8.135 -35.174  0.00  0.00     0.042 A 
ATOM     29  H   UNK d   0      -5.130   7.212 -34.009  0.00  0.00     0.166 HD
ATOM     30  C   UNK d   0      -6.442   9.498 -35.304  0.00  0.00     0.062 C 
ATOM     31  C   UNK d   0      -7.954   7.663 -35.754  0.00  0.00    -0.013 A 
ATOM     32  C   UNK d   0      -5.206  10.073 -35.552  0.00  0.00     0.066 A 
BRANCH   8  33
ATOM     33  C   UNK d   0      -2.539  12.505 -36.252  0.00  0.00     0.151 C 
BRANCH  33  34
ATOM     34  C   UNK d   0      -1.899  12.416 -37.577  0.00  0.00     0.143 C 
ATOM     35  O   UNK d   0      -2.580  12.364 -38.611  0.00  0.00    -0.650 OA
BRANCH  34  36
ATOM     36  O   UNK d   0      -0.526  12.390 -37.663  0.00  0.00    -0.776 OA
ATOM     37  H   UNK d   0       0.037  11.790 -37.044  0.00  0.00     0.167 HD
ENDBRANCH  34  36
ENDBRANCH  33  34
ENDBRANCH   8  33
BRANCH  31  38
ATOM     38  C   UNK d   0      -8.990   8.442 -36.531  0.00  0.00     0.151 C 
BRANCH  38  39
ATOM     39  C   UNK d   0      -9.835   9.255 -35.683  0.00  0.00     0.143 C 
ATOM     40  O   UNK d   0     -10.372  10.302 -36.086  0.00  0.00    -0.650 OA
BRANCH  39  41
ATOM     41  O   UNK d   0     -10.064   8.863 -34.365  0.00  0.00    -0.776 OA
ATOM     42  H   UNK d   0      -9.270   8.925 -33.720  0.00  0.00     0.167 HD
ENDBRANCH  39  41
ENDBRANCH  38  39
ENDBRANCH  31  38
BRANCH  27  43
ATOM     43  C   UNK d   0      -9.114   5.423 -35.914  0.00  0.00     0.052 C 
BRANCH  43  44
ATOM     44  C   UNK d   0     -10.242   5.369 -34.935  0.00  0.00     0.115 C 
BRANCH  44  45
ATOM     45  C   UNK d   0     -10.341   3.957 -34.480  0.00  0.00     0.139 C 
ATOM     46  O   UNK d   0      -9.833   3.656 -33.372  0.00  0.00    -0.650 OA
BRANCH  45  47
ATOM     47  O   UNK d   0     -10.968   2.976 -35.218  0.00  0.00    -0.776 OA
ATOM     48  H   UNK d   0     -11.978   2.774 -35.138  0.00  0.00     0.167 HD
ENDBRANCH  45  47
ENDBRANCH  44  45
ENDBRANCH  43  44
ENDBRANCH  27  43
BRANCH  24  49
ATOM     49  C   UNK d   0      -5.844   1.503 -33.771  0.00  0.00     0.052 C 
BRANCH  49  50
ATOM     50  C   UNK d   0      -6.504   0.928 -34.998  0.00  0.00     0.115 C 
BRANCH  50  51
ATOM     51  C   UNK d   0      -7.911   1.242 -35.205  0.00  0.00     0.139 C 
ATOM     52  O   UNK d   0      -8.337   1.784 -36.252  0.00  0.00    -0.650 OA
BRANCH  51  53
ATOM     53  O   UNK d   0      -8.834   0.939 -34.215  0.00  0.00    -0.776 OA
ATOM     54  H   UNK d   0      -8.621   0.191 -33.579  0.00  0.00     0.167 HD
ENDBRANCH  51  53
ENDBRANCH  50  51
ENDBRANCH  49  50
ENDBRANCH  24  49
BRANCH  21  55
ATOM     55  C   UNK d   0      -2.796   1.365 -34.261  0.00  0.00     0.151 C 
BRANCH  55  56
ATOM     56  C   UNK d   0      -2.437   0.835 -35.585  0.00  0.00     0.143 C 
ATOM     57  O   UNK d   0      -3.269   0.308 -36.350  0.00  0.00    -0.650 OA
BRANCH  56  58
ATOM     58  O   UNK d   0      -1.105   0.935 -35.985  0.00  0.00    -0.776 OA
ATOM     59  H   UNK d   0      -0.894   0.515 -36.908  0.00  0.00     0.167 HD
ENDBRANCH  56  58
ENDBRANCH  55  56
ENDBRANCH  21  55
BRANCH  18  60
ATOM     60  C   UNK d   0       0.560   5.534 -33.852  0.00  0.00     0.151 C 
BRANCH  60  61
ATOM     61  C   UNK d   0       1.557   5.097 -34.841  0.00  0.00     0.143 C 
ATOM     62  O   UNK d   0       1.353   4.797 -36.017  0.00  0.00    -0.650 OA
BRANCH  61  63
ATOM     63  O   UNK d   0       2.888   5.022 -34.362  0.00  0.00    -0.776 OA
ATOM     64  H   UNK d   0       3.212   4.217 -33.856  0.00  0.00     0.167 HD
ENDBRANCH  61  63
ENDBRANCH  60  61
ENDBRANCH  18  60
BRANCH  14  65
ATOM     65  C   UNK d   0       0.745   8.476 -34.571  0.00  0.00     0.052 C 
BRANCH  65  66
ATOM     66  C   UNK d   0       1.758   8.534 -35.659  0.00  0.00     0.115 C 
BRANCH  66  67
ATOM     67  C   UNK d   0       3.142   8.308 -35.356  0.00  0.00     0.139 C 
ATOM     68  O   UNK d   0       3.808   7.494 -36.097  0.00  0.00    -0.650 OA
BRANCH  67  69
ATOM     69  O   UNK d   0       3.894   8.872 -34.325  0.00  0.00    -0.776 OA
ATOM     70  H   UNK d   0       4.142   9.864 -34.444  0.00  0.00     0.167 HD
ENDBRANCH  67  69
ENDBRANCH  66  67
ENDBRANCH  65  66
ENDBRANCH  14  65
ENDBRANCH   6   7
ENDBRANCH   5   6
ENDBRANCH   2   5
TORSDOF 28
ENDMDL
MODEL 17
REMARK VINA RESULT:      -7.0      3.305      6.630
REMARK  28 active torsions:
REMARK  status: ('A' for Active; 'I' for Inactive)
REMARK    1  A    between atoms: C_2  and  O_3 
REMARK    2  A    between atoms: C_2  and  C_4 
REMARK    3  A    between atoms: C_4  and  C_5 
REMARK    4  A    between atoms: C_5  and  C_6 
REMARK    5  A    between atoms: C_7  and  C_8 
REMARK    6  A    between atoms: C_8  and  C_9 
REMARK    7  A    between atoms: C_9  and  O_11 
REMARK    8  A    between atoms: C_28  and  C_29 
REMARK    9  A    between atoms: C_29  and  C_30 
REMARK   10  A    between atoms: C_30  and  O_32 
REMARK   11  A    between atoms: C_33  and  C_34 
REMARK   12  A    between atoms: C_34  and  C_35 
REMARK   13  A    between atoms: C_35  and  C_36 
REMARK   14  A    between atoms: C_36  and  O_38 
REMARK   15  A    between atoms: C_39  and  C_40 
REMARK   16  A    between atoms: C_40  and  C_41 
REMARK   17  A    between atoms: C_41  and  C_42 
REMARK   18  A    between atoms: C_42  and  O_44 
REMARK   19  A    between atoms: C_45  and  C_46 
REMARK   20  A    between atoms: C_46  and  C_47 
REMARK   21  A    between atoms: C_47  and  O_49 
REMARK   22  A    between atoms: C_50  and  C_51 
REMARK   23  A    between atoms: C_51  and  C_52 
REMARK   24  A    between atoms: C_52  and  O_54 
REMARK   25  A    between atoms: C_55  and  C_56 
REMARK   26  A    between atoms: C_56  and  C_57 
REMARK   27  A    between atoms: C_57  and  C_58 
REMARK   28  A    between atoms: C_58  and  O_60 
ROOT
ATOM      1  O   UNK d   0      -2.834  12.680 -36.315  0.00  0.00    -0.650 OA
ATOM      2  C   UNK d   0      -2.561  11.593 -35.759  0.00  0.00     0.139 C 
ENDROOT
BRANCH   2   3
ATOM      3  O   UNK d   0      -3.463  11.040 -34.881  0.00  0.00    -0.776 OA
ATOM      4  H   UNK d   0      -3.937  11.614 -34.181  0.00  0.00     0.167 HD
ENDBRANCH   2   3
BRANCH   2   5
ATOM      5  C   UNK d   0      -1.269  10.909 -36.047  0.00  0.00     0.115 C 
BRANCH   5   6
ATOM      6  C   UNK d   0      -0.849  10.077 -34.865  0.00  0.00     0.052 C 
BRANCH   6   7
ATOM      7  C   UNK d   0      -0.564   8.641 -35.237  0.00  0.00    -0.020 A 
ATOM      8  C   UNK d   0       0.570   7.998 -35.126  0.00  0.00    -0.011 A 
ATOM      9  C   UNK d   0       0.364   6.645 -35.617  0.00  0.00     0.067 A 
ATOM     10  C   UNK d   0       1.144   5.486 -35.747  0.00  0.00     0.062 C 
ATOM     11  N   UNK d   0      -0.923   6.555 -36.012  0.00  0.00    -0.248 NA
ATOM     12  C   UNK d   0       0.692   4.184 -35.987  0.00  0.00     0.041 A 
ATOM     13  N   UNK d   0      -0.248   3.712 -36.828  0.00  0.00    -0.355 N 
ATOM     14  C   UNK d   0       1.222   3.128 -35.223  0.00  0.00    -0.022 A 
ATOM     15  C   UNK d   0      -0.334   2.386 -36.612  0.00  0.00     0.042 A 
ATOM     16  H   UNK d   0      -0.825   4.302 -37.574  0.00  0.00     0.166 HD
ATOM     17  C   UNK d   0      -1.154   1.413 -37.218  0.00  0.00     0.062 C 
ATOM     18  C   UNK d   0       0.572   1.983 -35.612  0.00  0.00    -0.013 A 
ATOM     19  C   UNK d   0      -2.494   1.472 -37.506  0.00  0.00     0.067 A 
ATOM     20  N   UNK d   0      -3.086   2.663 -37.389  0.00  0.00    -0.248 NA
ATOM     21  C   UNK d   0      -3.516   0.525 -37.918  0.00  0.00    -0.011 A 
ATOM     22  C   UNK d   0      -4.421   2.563 -37.693  0.00  0.00     0.066 A 
ATOM     23  C   UNK d   0      -5.153   3.741 -37.648  0.00  0.00     0.062 C 
ATOM     24  C   UNK d   0      -4.643   1.169 -38.021  0.00  0.00    -0.020 A 
ATOM     25  C   UNK d   0      -4.678   5.041 -37.417  0.00  0.00     0.041 A 
ATOM     26  N   UNK d   0      -3.754   5.511 -36.571  0.00  0.00    -0.355 N 
ATOM     27  C   UNK d   0      -5.207   6.099 -38.188  0.00  0.00    -0.022 A 
ATOM     28  C   UNK d   0      -3.672   6.835 -36.779  0.00  0.00     0.042 A 
ATOM     29  H   UNK d   0      -3.183   4.919 -35.814  0.00  0.00     0.166 HD
ATOM     30  C   UNK d   0      -2.869   7.816 -36.177  0.00  0.00     0.062 C 
ATOM     31  C   UNK d   0      -4.576   7.238 -37.791  0.00  0.00    -0.013 A 
ATOM     32  C   UNK d   0      -1.536   7.722 -35.810  0.00  0.00     0.066 A 
BRANCH   8  33
ATOM     33  C   UNK d   0       1.842   8.530 -34.604  0.00  0.00     0.151 C 
BRANCH  33  34
ATOM     34  C   UNK d   0       2.979   8.282 -35.510  0.00  0.00     0.143 C 
ATOM     35  O   UNK d   0       4.091   7.967 -35.063  0.00  0.00    -0.650 OA
BRANCH  34  36
ATOM     36  O   UNK d   0       2.799   8.403 -36.868  0.00  0.00    -0.776 OA
ATOM     37  H   UNK d   0       2.506   9.294 -37.291  0.00  0.00     0.167 HD
ENDBRANCH  34  36
ENDBRANCH  33  34
ENDBRANCH   8  33
BRANCH  31  38
ATOM     38  C   UNK d   0      -4.804   8.624 -38.347  0.00  0.00     0.151 C 
BRANCH  38  39
ATOM     39  C   UNK d   0      -5.892   9.319 -37.691  0.00  0.00     0.143 C 
ATOM     40  O   UNK d   0      -7.040   9.358 -38.168  0.00  0.00    -0.650 OA
BRANCH  39  41
ATOM     41  O   UNK d   0      -5.659   9.972 -36.481  0.00  0.00    -0.776 OA
ATOM     42  H   UNK d   0      -5.647  10.997 -36.505  0.00  0.00     0.167 HD
ENDBRANCH  39  41
ENDBRANCH  38  39
ENDBRANCH  31  38
BRANCH  27  43
ATOM     43  C   UNK d   0      -6.267   6.067 -39.260  0.00  0.00     0.052 C 
BRANCH  43  44
ATOM     44  C   UNK d   0      -5.913   5.186 -40.414  0.00  0.00     0.115 C 
BRANCH  44  45
ATOM     45  C   UNK d   0      -5.376   6.073 -41.478  0.00  0.00     0.139 C 
ATOM     46  O   UNK d   0      -5.250   7.296 -41.221  0.00  0.00    -0.650 OA
BRANCH  45  47
ATOM     47  O   UNK d   0      -5.009   5.610 -42.723  0.00  0.00    -0.776 OA
ATOM     48  H   UNK d   0      -4.617   6.224 -43.456  0.00  0.00     0.167 HD
ENDBRANCH  45  47
ENDBRANCH  44  45
ENDBRANCH  43  44
ENDBRANCH  27  43
BRANCH  24  49
ATOM     49  C   UNK d   0      -5.932   0.600 -38.451  0.00  0.00     0.052 C 
BRANCH  49  50
ATOM     50  C   UNK d   0      -6.760   0.214 -37.253  0.00  0.00     0.115 C 
BRANCH  50  51
ATOM     51  C   UNK d   0      -7.845   1.111 -36.877  0.00  0.00     0.139 C 
ATOM     52  O   UNK d   0      -8.410   1.058 -35.760  0.00  0.00    -0.650 OA
BRANCH  51  53
ATOM     53  O   UNK d   0      -8.287   2.068 -37.778  0.00  0.00    -0.776 OA
ATOM     54  H   UNK d   0      -9.209   1.966 -38.165  0.00  0.00     0.167 HD
ENDBRANCH  51  53
ENDBRANCH  50  51
ENDBRANCH  49  50
ENDBRANCH  24  49
BRANCH  21  55
ATOM     55  C   UNK d   0      -3.259  -0.924 -38.169  0.00  0.00     0.151 C 
BRANCH  55  56
ATOM     56  C   UNK d   0      -2.639  -1.154 -39.483  0.00  0.00     0.143 C 
ATOM     57  O   UNK d   0      -1.629  -1.870 -39.637  0.00  0.00    -0.650 OA
BRANCH  56  58
ATOM     58  O   UNK d   0      -3.218  -0.539 -40.591  0.00  0.00    -0.776 OA
ATOM     59  H   UNK d   0      -3.754  -1.172 -41.212  0.00  0.00     0.167 HD
ENDBRANCH  56  58
ENDBRANCH  55  56
ENDBRANCH  21  55
BRANCH  18  60
ATOM     60  C   UNK d   0       0.823   0.610 -35.040  0.00  0.00     0.151 C 
BRANCH  60  61
ATOM     61  C   UNK d   0      -0.409   0.236 -34.329  0.00  0.00     0.143 C 
ATOM     62  O   UNK d   0      -1.184   0.991 -33.740  0.00  0.00    -0.650 OA
BRANCH  61  63
ATOM     63  O   UNK d   0      -0.713  -1.146 -34.336  0.00  0.00    -0.776 OA
ATOM     64  H   UNK d   0      -1.357  -1.539 -33.672  0.00  0.00     0.167 HD
ENDBRANCH  61  63
ENDBRANCH  60  61
ENDBRANCH  18  60
BRANCH  14  65
ATOM     65  C   UNK d   0       2.352   3.104 -34.234  0.00  0.00     0.052 C 
BRANCH  65  66
ATOM     66  C   UNK d   0       3.681   3.329 -34.864  0.00  0.00     0.115 C 
BRANCH  66  67
ATOM     67  C   UNK d   0       4.449   4.489 -34.510  0.00  0.00     0.139 C 
ATOM     68  O   UNK d   0       4.312   4.979 -33.329  0.00  0.00    -0.650 OA
BRANCH  67  69
ATOM     69  O   UNK d   0       5.358   5.186 -35.306  0.00  0.00    -0.776 OA
ATOM     70  H   UNK d   0       5.775   4.652 -36.082  0.00  0.00     0.167 HD
ENDBRANCH  67  69
ENDBRANCH  66  67
ENDBRANCH  65  66
ENDBRANCH  14  65
ENDBRANCH   6   7
ENDBRANCH   5   6
ENDBRANCH   2   5
TORSDOF 28
ENDMDL
MODEL 18
REMARK VINA RESULT:      -7.0      3.036      9.882
REMARK  28 active torsions:
REMARK  status: ('A' for Active; 'I' for Inactive)
REMARK    1  A    between atoms: C_2  and  O_3 
REMARK    2  A    between atoms: C_2  and  C_4 
REMARK    3  A    between atoms: C_4  and  C_5 
REMARK    4  A    between atoms: C_5  and  C_6 
REMARK    5  A    between atoms: C_7  and  C_8 
REMARK    6  A    between atoms: C_8  and  C_9 
REMARK    7  A    between atoms: C_9  and  O_11 
REMARK    8  A    between atoms: C_28  and  C_29 
REMARK    9  A    between atoms: C_29  and  C_30 
REMARK   10  A    between atoms: C_30  and  O_32 
REMARK   11  A    between atoms: C_33  and  C_34 
REMARK   12  A    between atoms: C_34  and  C_35 
REMARK   13  A    between atoms: C_35  and  C_36 
REMARK   14  A    between atoms: C_36  and  O_38 
REMARK   15  A    between atoms: C_39  and  C_40 
REMARK   16  A    between atoms: C_40  and  C_41 
REMARK   17  A    between atoms: C_41  and  C_42 
REMARK   18  A    between atoms: C_42  and  O_44 
REMARK   19  A    between atoms: C_45  and  C_46 
REMARK   20  A    between atoms: C_46  and  C_47 
REMARK   21  A    between atoms: C_47  and  O_49 
REMARK   22  A    between atoms: C_50  and  C_51 
REMARK   23  A    between atoms: C_51  and  C_52 
REMARK   24  A    between atoms: C_52  and  O_54 
REMARK   25  A    between atoms: C_55  and  C_56 
REMARK   26  A    between atoms: C_56  and  C_57 
REMARK   27  A    between atoms: C_57  and  C_58 
REMARK   28  A    between atoms: C_58  and  O_60 
ROOT
ATOM      1  O   UNK d   0     -13.145  13.188 -33.007  0.00  0.00    -0.650 OA
ATOM      2  C   UNK d   0     -12.551  13.895 -33.851  0.00  0.00     0.139 C 
ENDROOT
BRANCH   2   3
ATOM      3  O   UNK d   0     -11.774  14.945 -33.423  0.00  0.00    -0.776 OA
ATOM      4  H   UNK d   0     -11.060  15.353 -34.029  0.00  0.00     0.167 HD
ENDBRANCH   2   3
BRANCH   2   5
ATOM      5  C   UNK d   0     -12.688  13.598 -35.305  0.00  0.00     0.115 C 
BRANCH   5   6
ATOM      6  C   UNK d   0     -11.759  14.474 -36.102  0.00  0.00     0.052 C 
BRANCH   6   7
ATOM      7  C   UNK d   0     -10.395  13.855 -36.289  0.00  0.00    -0.020 A 
ATOM      8  C   UNK d   0      -9.233  14.454 -36.240  0.00  0.00    -0.011 A 
ATOM      9  C   UNK d   0      -8.206  13.456 -36.488  0.00  0.00     0.067 A 
ATOM     10  C   UNK d   0      -6.804  13.439 -36.550  0.00  0.00     0.062 C 
ATOM     11  N   UNK d   0      -8.833  12.277 -36.684  0.00  0.00    -0.248 NA
ATOM     12  C   UNK d   0      -5.969  12.317 -36.526  0.00  0.00     0.041 A 
ATOM     13  N   UNK d   0      -6.066  11.126 -37.148  0.00  0.00    -0.355 N 
ATOM     14  C   UNK d   0      -4.836  12.329 -35.692  0.00  0.00    -0.022 A 
ATOM     15  C   UNK d   0      -5.028  10.380 -36.724  0.00  0.00     0.042 A 
ATOM     16  H   UNK d   0      -6.841  10.826 -37.887  0.00  0.00     0.166 HD
ATOM     17  C   UNK d   0      -4.653   9.063 -37.058  0.00  0.00     0.062 C 
ATOM     18  C   UNK d   0      -4.235  11.101 -35.810  0.00  0.00    -0.013 A 
ATOM     19  C   UNK d   0      -5.438   7.944 -37.163  0.00  0.00     0.067 A 
ATOM     20  N   UNK d   0      -6.761   8.129 -37.146  0.00  0.00    -0.248 NA
ATOM     21  C   UNK d   0      -5.208   6.514 -37.282  0.00  0.00    -0.011 A 
ATOM     22  C   UNK d   0      -7.412   6.923 -37.243  0.00  0.00     0.066 A 
ATOM     23  C   UNK d   0      -8.798   6.972 -37.275  0.00  0.00     0.062 C 
ATOM     24  C   UNK d   0      -6.367   5.922 -37.325  0.00  0.00    -0.020 A 
ATOM     25  C   UNK d   0      -9.618   8.111 -37.311  0.00  0.00     0.041 A 
ATOM     26  N   UNK d   0      -9.530   9.288 -36.681  0.00  0.00    -0.355 N 
ATOM     27  C   UNK d   0     -10.752   8.099 -38.152  0.00  0.00    -0.022 A 
ATOM     28  C   UNK d   0     -10.569  10.031 -37.096  0.00  0.00     0.042 A 
ATOM     29  H   UNK d   0      -8.756   9.585 -35.931  0.00  0.00     0.166 HD
ATOM     30  C   UNK d   0     -10.958  11.338 -36.765  0.00  0.00     0.062 C 
ATOM     31  C   UNK d   0     -11.359   9.310 -38.022  0.00  0.00    -0.013 A 
ATOM     32  C   UNK d   0     -10.151  12.449 -36.576  0.00  0.00     0.066 A 
BRANCH   8  33
ATOM     33  C   UNK d   0      -8.986  15.885 -35.986  0.00  0.00     0.151 C 
BRANCH  33  34
ATOM     34  C   UNK d   0      -8.875  16.199 -34.550  0.00  0.00     0.143 C 
ATOM     35  O   UNK d   0      -7.966  15.714 -33.861  0.00  0.00    -0.650 OA
BRANCH  34  36
ATOM     36  O   UNK d   0      -9.795  17.042 -33.970  0.00  0.00    -0.776 OA
ATOM     37  H   UNK d   0     -10.519  16.684 -33.333  0.00  0.00     0.167 HD
ENDBRANCH  34  36
ENDBRANCH  33  34
ENDBRANCH   8  33
BRANCH  31  38
ATOM     38  C   UNK d   0     -12.607   9.764 -38.743  0.00  0.00     0.151 C 
BRANCH  38  39
ATOM     39  C   UNK d   0     -13.814   9.521 -37.983  0.00  0.00     0.143 C 
ATOM     40  O   UNK d   0     -14.385   8.416 -37.973  0.00  0.00    -0.650 OA
BRANCH  39  41
ATOM     41  O   UNK d   0     -14.369  10.555 -37.228  0.00  0.00    -0.776 OA
ATOM     42  H   UNK d   0     -13.927  10.756 -36.326  0.00  0.00     0.167 HD
ENDBRANCH  39  41
ENDBRANCH  38  39
ENDBRANCH  31  38
BRANCH  27  43
ATOM     43  C   UNK d   0     -11.268   7.003 -39.050  0.00  0.00     0.052 C 
BRANCH  43  44
ATOM     44  C   UNK d   0     -11.893   5.871 -38.302  0.00  0.00     0.115 C 
BRANCH  44  45
ATOM     45  C   UNK d   0     -13.061   5.424 -39.106  0.00  0.00     0.139 C 
ATOM     46  O   UNK d   0     -13.348   4.201 -39.103  0.00  0.00    -0.650 OA
BRANCH  45  47
ATOM     47  O   UNK d   0     -13.837   6.292 -39.842  0.00  0.00    -0.776 OA
ATOM     48  H   UNK d   0     -13.705   7.316 -39.822  0.00  0.00     0.167 HD
ENDBRANCH  45  47
ENDBRANCH  44  45
ENDBRANCH  43  44
ENDBRANCH  27  43
BRANCH  24  49
ATOM     49  C   UNK d   0      -6.598   4.476 -37.481  0.00  0.00     0.052 C 
BRANCH  49  50
ATOM     50  C   UNK d   0      -7.231   4.188 -38.818  0.00  0.00     0.115 C 
BRANCH  50  51
ATOM     51  C   UNK d   0      -6.337   3.858 -39.920  0.00  0.00     0.139 C 
ATOM     52  O   UNK d   0      -5.109   3.663 -39.759  0.00  0.00    -0.650 OA
BRANCH  51  53
ATOM     53  O   UNK d   0      -6.843   3.752 -41.206  0.00  0.00    -0.776 OA
ATOM     54  H   UNK d   0      -7.747   3.331 -41.329  0.00  0.00     0.167 HD
ENDBRANCH  51  53
ENDBRANCH  50  51
ENDBRANCH  49  50
ENDBRANCH  24  49
BRANCH  21  55
ATOM     55  C   UNK d   0      -3.854   5.889 -37.346  0.00  0.00     0.151 C 
BRANCH  55  56
ATOM     56  C   UNK d   0      -3.105   6.066 -36.092  0.00  0.00     0.143 C 
ATOM     57  O   UNK d   0      -3.358   5.417 -35.058  0.00  0.00    -0.650 OA
BRANCH  56  58
ATOM     58  O   UNK d   0      -2.073   7.002 -36.079  0.00  0.00    -0.776 OA
ATOM     59  H   UNK d   0      -2.259   7.864 -36.624  0.00  0.00     0.167 HD
ENDBRANCH  56  58
ENDBRANCH  55  56
ENDBRANCH  21  55
BRANCH  18  60
ATOM     60  C   UNK d   0      -2.985  10.676 -35.079  0.00  0.00     0.151 C 
BRANCH  60  61
ATOM     61  C   UNK d   0      -1.894  10.762 -36.061  0.00  0.00     0.143 C 
ATOM     62  O   UNK d   0      -1.808  11.543 -37.009  0.00  0.00    -0.650 OA
BRANCH  61  63
ATOM     63  O   UNK d   0      -0.840   9.836 -35.873  0.00  0.00    -0.776 OA
ATOM     64  H   UNK d   0      -0.738   9.037 -36.474  0.00  0.00     0.167 HD
ENDBRANCH  61  63
ENDBRANCH  60  61
ENDBRANCH  18  60
BRANCH  14  65
ATOM     65  C   UNK d   0      -4.230  13.436 -34.877  0.00  0.00     0.052 C 
BRANCH  65  66
ATOM     66  C   UNK d   0      -3.280  14.277 -35.653  0.00  0.00     0.115 C 
BRANCH  66  67
ATOM     67  C   UNK d   0      -1.981  14.566 -35.113  0.00  0.00     0.139 C 
ATOM     68  O   UNK d   0      -0.965  14.515 -35.899  0.00  0.00    -0.650 OA
BRANCH  67  69
ATOM     69  O   UNK d   0      -1.659  14.908 -33.800  0.00  0.00    -0.776 OA
ATOM     70  H   UNK d   0      -2.067  14.308 -33.069  0.00  0.00     0.167 HD
ENDBRANCH  67  69
ENDBRANCH  66  67
ENDBRANCH  65  66
ENDBRANCH  14  65
ENDBRANCH   6   7
ENDBRANCH   5   6
ENDBRANCH   2   5
TORSDOF 28
ENDMDL
MODEL 19
REMARK VINA RESULT:      -7.0      2.190      8.506
REMARK  28 active torsions:
REMARK  status: ('A' for Active; 'I' for Inactive)
REMARK    1  A    between atoms: C_2  and  O_3 
REMARK    2  A    between atoms: C_2  and  C_4 
REMARK    3  A    between atoms: C_4  and  C_5 
REMARK    4  A    between atoms: C_5  and  C_6 
REMARK    5  A    between atoms: C_7  and  C_8 
REMARK    6  A    between atoms: C_8  and  C_9 
REMARK    7  A    between atoms: C_9  and  O_11 
REMARK    8  A    between atoms: C_28  and  C_29 
REMARK    9  A    between atoms: C_29  and  C_30 
REMARK   10  A    between atoms: C_30  and  O_32 
REMARK   11  A    between atoms: C_33  and  C_34 
REMARK   12  A    between atoms: C_34  and  C_35 
REMARK   13  A    between atoms: C_35  and  C_36 
REMARK   14  A    between atoms: C_36  and  O_38 
REMARK   15  A    between atoms: C_39  and  C_40 
REMARK   16  A    between atoms: C_40  and  C_41 
REMARK   17  A    between atoms: C_41  and  C_42 
REMARK   18  A    between atoms: C_42  and  O_44 
REMARK   19  A    between atoms: C_45  and  C_46 
REMARK   20  A    between atoms: C_46  and  C_47 
REMARK   21  A    between atoms: C_47  and  O_49 
REMARK   22  A    between atoms: C_50  and  C_51 
REMARK   23  A    between atoms: C_51  and  C_52 
REMARK   24  A    between atoms: C_52  and  O_54 
REMARK   25  A    between atoms: C_55  and  C_56 
REMARK   26  A    between atoms: C_56  and  C_57 
REMARK   27  A    between atoms: C_57  and  C_58 
REMARK   28  A    between atoms: C_58  and  O_60 
ROOT
ATOM      1  O   UNK d   0      -8.004  11.938 -37.997  0.00  0.00    -0.650 OA
ATOM      2  C   UNK d   0      -7.387  12.163 -36.932  0.00  0.00     0.139 C 
ENDROOT
BRANCH   2   3
ATOM      3  O   UNK d   0      -7.966  11.824 -35.733  0.00  0.00    -0.776 OA
ATOM      4  H   UNK d   0      -8.964  11.971 -35.569  0.00  0.00     0.167 HD
ENDBRANCH   2   3
BRANCH   2   5
ATOM      5  C   UNK d   0      -6.037  12.794 -36.969  0.00  0.00     0.115 C 
BRANCH   5   6
ATOM      6  C   UNK d   0      -5.337  12.596 -35.652  0.00  0.00     0.052 C 
BRANCH   6   7
ATOM      7  C   UNK d   0      -4.209  11.596 -35.737  0.00  0.00    -0.020 A 
ATOM      8  C   UNK d   0      -2.924  11.838 -35.712  0.00  0.00    -0.011 A 
ATOM      9  C   UNK d   0      -2.229  10.567 -35.832  0.00  0.00     0.067 A 
ATOM     10  C   UNK d   0      -0.891  10.142 -35.850  0.00  0.00     0.062 C 
ATOM     11  N   UNK d   0      -3.169   9.604 -35.931  0.00  0.00    -0.248 NA
ATOM     12  C   UNK d   0      -0.415   8.836 -35.693  0.00  0.00     0.041 A 
ATOM     13  N   UNK d   0      -0.851   7.667 -36.199  0.00  0.00    -0.355 N 
ATOM     14  C   UNK d   0       0.673   8.607 -34.831  0.00  0.00    -0.022 A 
ATOM     15  C   UNK d   0      -0.073   6.701 -35.674  0.00  0.00     0.042 A 
ATOM     16  H   UNK d   0      -1.680   7.528 -36.928  0.00  0.00     0.166 HD
ATOM     17  C   UNK d   0      -0.094   5.305 -35.867  0.00  0.00     0.062 C 
ATOM     18  C   UNK d   0       0.894   7.252 -34.811  0.00  0.00    -0.013 A 
ATOM     19  C   UNK d   0      -1.169   4.454 -35.887  0.00  0.00     0.067 A 
ATOM     20  N   UNK d   0      -2.382   5.011 -35.927  0.00  0.00    -0.248 NA
ATOM     21  C   UNK d   0      -1.361   3.013 -35.860  0.00  0.00    -0.011 A 
ATOM     22  C   UNK d   0      -3.353   4.040 -35.926  0.00  0.00     0.066 A 
ATOM     23  C   UNK d   0      -4.666   4.481 -36.004  0.00  0.00     0.062 C 
ATOM     24  C   UNK d   0      -2.641   2.778 -35.879  0.00  0.00    -0.020 A 
ATOM     25  C   UNK d   0      -5.123   5.797 -36.174  0.00  0.00     0.041 A 
ATOM     26  N   UNK d   0      -4.699   6.958 -35.659  0.00  0.00    -0.355 N 
ATOM     27  C   UNK d   0      -6.212   6.027 -37.043  0.00  0.00    -0.022 A 
ATOM     28  C   UNK d   0      -5.479   7.921 -36.174  0.00  0.00     0.042 A 
ATOM     29  H   UNK d   0      -3.873   7.094 -34.919  0.00  0.00     0.166 HD
ATOM     30  C   UNK d   0      -5.475   9.312 -35.984  0.00  0.00     0.062 C 
ATOM     31  C   UNK d   0      -6.443   7.368 -37.050  0.00  0.00    -0.013 A 
ATOM     32  C   UNK d   0      -4.382  10.158 -35.880  0.00  0.00     0.066 A 
BRANCH   8  33
ATOM     33  C   UNK d   0      -2.274  13.156 -35.591  0.00  0.00     0.151 C 
BRANCH  33  34
ATOM     34  C   UNK d   0      -1.570  13.560 -36.821  0.00  0.00     0.143 C 
ATOM     35  O   UNK d   0      -1.893  13.093 -37.922  0.00  0.00    -0.650 OA
BRANCH  34  36
ATOM     36  O   UNK d   0      -0.540  14.469 -36.742  0.00  0.00    -0.776 OA
ATOM     37  H   UNK d   0      -0.541  15.218 -36.037  0.00  0.00     0.167 HD
ENDBRANCH  34  36
ENDBRANCH  33  34
ENDBRANCH   8  33
BRANCH  31  38
ATOM     38  C   UNK d   0      -7.507   8.085 -37.848  0.00  0.00     0.151 C 
BRANCH  38  39
ATOM     39  C   UNK d   0      -8.771   8.173 -37.148  0.00  0.00     0.143 C 
ATOM     40  O   UNK d   0      -8.988   9.026 -36.271  0.00  0.00    -0.650 OA
BRANCH  39  41
ATOM     41  O   UNK d   0      -9.791   7.274 -37.460  0.00  0.00    -0.776 OA
ATOM     42  H   UNK d   0     -10.706   7.676 -37.686  0.00  0.00     0.167 HD
ENDBRANCH  39  41
ENDBRANCH  38  39
ENDBRANCH  31  38
BRANCH  27  43
ATOM     43  C   UNK d   0      -7.021   5.040 -37.846  0.00  0.00     0.052 C 
BRANCH  43  44
ATOM     44  C   UNK d   0      -6.603   4.959 -39.278  0.00  0.00     0.115 C 
BRANCH  44  45
ATOM     45  C   UNK d   0      -5.900   3.660 -39.442  0.00  0.00     0.139 C 
ATOM     46  O   UNK d   0      -4.684   3.681 -39.758  0.00  0.00    -0.650 OA
BRANCH  45  47
ATOM     47  O   UNK d   0      -6.522   2.444 -39.257  0.00  0.00    -0.776 OA
ATOM     48  H   UNK d   0      -6.483   1.925 -38.365  0.00  0.00     0.167 HD
ENDBRANCH  45  47
ENDBRANCH  44  45
ENDBRANCH  43  44
ENDBRANCH  27  43
BRANCH  24  49
ATOM     49  C   UNK d   0      -3.280   1.451 -35.901  0.00  0.00     0.052 C 
BRANCH  49  50
ATOM     50  C   UNK d   0      -4.017   1.246 -37.200  0.00  0.00     0.115 C 
BRANCH  50  51
ATOM     51  C   UNK d   0      -3.248   0.739 -38.328  0.00  0.00     0.139 C 
ATOM     52  O   UNK d   0      -2.192   0.079 -38.184  0.00  0.00    -0.650 OA
BRANCH  51  53
ATOM     53  O   UNK d   0      -3.681   0.986 -39.621  0.00  0.00    -0.776 OA
ATOM     54  H   UNK d   0      -4.576   0.624 -39.901  0.00  0.00     0.167 HD
ENDBRANCH  51  53
ENDBRANCH  50  51
ENDBRANCH  49  50
ENDBRANCH  24  49
BRANCH  21  55
ATOM     55  C   UNK d   0      -0.245   2.022 -35.822  0.00  0.00     0.151 C 
BRANCH  55  56
ATOM     56  C   UNK d   0       0.196   1.740 -34.448  0.00  0.00     0.143 C 
ATOM     57  O   UNK d   0       0.983   2.481 -33.826  0.00  0.00    -0.650 OA
BRANCH  56  58
ATOM     58  O   UNK d   0      -0.297   0.592 -33.830  0.00  0.00    -0.776 OA
ATOM     59  H   UNK d   0      -0.902   0.765 -33.007  0.00  0.00     0.167 HD
ENDBRANCH  56  58
ENDBRANCH  55  56
ENDBRANCH  21  55
BRANCH  18  60
ATOM     60  C   UNK d   0       1.967   6.563 -34.006  0.00  0.00     0.151 C 
BRANCH  60  61
ATOM     61  C   UNK d   0       3.185   6.613 -34.829  0.00  0.00     0.143 C 
ATOM     62  O   UNK d   0       3.360   6.087 -35.928  0.00  0.00    -0.650 OA
BRANCH  61  63
ATOM     63  O   UNK d   0       4.257   7.353 -34.274  0.00  0.00    -0.776 OA
ATOM     64  H   UNK d   0       4.443   8.295 -34.569  0.00  0.00     0.167 HD
ENDBRANCH  61  63
ENDBRANCH  60  61
ENDBRANCH  18  60
BRANCH  14  65
ATOM     65  C   UNK d   0       1.572   9.570 -34.109  0.00  0.00     0.052 C 
BRANCH  65  66
ATOM     66  C   UNK d   0       1.495   9.440 -32.629  0.00  0.00     0.115 C 
BRANCH  66  67
ATOM     67  C   UNK d   0       2.658   9.705 -31.830  0.00  0.00     0.139 C 
ATOM     68  O   UNK d   0       3.203  10.867 -31.905  0.00  0.00    -0.650 OA
BRANCH  67  69
ATOM     69  O   UNK d   0       3.303   8.837 -30.948  0.00  0.00    -0.776 OA
ATOM     70  H   UNK d   0       4.143   8.368 -31.316  0.00  0.00     0.167 HD
ENDBRANCH  67  69
ENDBRANCH  66  67
ENDBRANCH  65  66
ENDBRANCH  14  65
ENDBRANCH   6   7
ENDBRANCH   5   6
ENDBRANCH   2   5
TORSDOF 28
ENDMDL
MODEL 20
REMARK VINA RESULT:      -6.9     31.334     34.320
REMARK  28 active torsions:
REMARK  status: ('A' for Active; 'I' for Inactive)
REMARK    1  A    between atoms: C_2  and  O_3 
REMARK    2  A    between atoms: C_2  and  C_4 
REMARK    3  A    between atoms: C_4  and  C_5 
REMARK    4  A    between atoms: C_5  and  C_6 
REMARK    5  A    between atoms: C_7  and  C_8 
REMARK    6  A    between atoms: C_8  and  C_9 
REMARK    7  A    between atoms: C_9  and  O_11 
REMARK    8  A    between atoms: C_28  and  C_29 
REMARK    9  A    between atoms: C_29  and  C_30 
REMARK   10  A    between atoms: C_30  and  O_32 
REMARK   11  A    between atoms: C_33  and  C_34 
REMARK   12  A    between atoms: C_34  and  C_35 
REMARK   13  A    between atoms: C_35  and  C_36 
REMARK   14  A    between atoms: C_36  and  O_38 
REMARK   15  A    between atoms: C_39  and  C_40 
REMARK   16  A    between atoms: C_40  and  C_41 
REMARK   17  A    between atoms: C_41  and  C_42 
REMARK   18  A    between atoms: C_42  and  O_44 
REMARK   19  A    between atoms: C_45  and  C_46 
REMARK   20  A    between atoms: C_46  and  C_47 
REMARK   21  A    between atoms: C_47  and  O_49 
REMARK   22  A    between atoms: C_50  and  C_51 
REMARK   23  A    between atoms: C_51  and  C_52 
REMARK   24  A    between atoms: C_52  and  O_54 
REMARK   25  A    between atoms: C_55  and  C_56 
REMARK   26  A    between atoms: C_56  and  C_57 
REMARK   27  A    between atoms: C_57  and  C_58 
REMARK   28  A    between atoms: C_58  and  O_60 
ROOT
ATOM      1  O   UNK d   0      -9.138  26.916  -3.907  0.00  0.00    -0.650 OA
ATOM      2  C   UNK d   0      -8.636  25.817  -4.232  0.00  0.00     0.139 C 
ENDROOT
BRANCH   2   3
ATOM      3  O   UNK d   0      -9.115  24.662  -3.662  0.00  0.00    -0.776 OA
ATOM      4  H   UNK d   0      -9.972  24.665  -3.105  0.00  0.00     0.167 HD
ENDBRANCH   2   3
BRANCH   2   5
ATOM      5  C   UNK d   0      -7.528  25.766  -5.228  0.00  0.00     0.115 C 
BRANCH   5   6
ATOM      6  C   UNK d   0      -6.228  25.447  -4.541  0.00  0.00     0.052 C 
BRANCH   6   7
ATOM      7  C   UNK d   0      -5.528  24.253  -5.145  0.00  0.00    -0.020 A 
ATOM      8  C   UNK d   0      -4.655  24.249  -6.120  0.00  0.00    -0.011 A 
ATOM      9  C   UNK d   0      -4.266  22.870  -6.363  0.00  0.00     0.067 A 
ATOM     10  C   UNK d   0      -3.382  22.204  -7.226  0.00  0.00     0.062 C 
ATOM     11  N   UNK d   0      -4.956  22.100  -5.495  0.00  0.00    -0.248 NA
ATOM     12  C   UNK d   0      -2.933  20.883  -7.125  0.00  0.00     0.041 A 
ATOM     13  N   UNK d   0      -3.588  19.745  -6.828  0.00  0.00    -0.355 N 
ATOM     14  C   UNK d   0      -1.563  20.615  -7.296  0.00  0.00    -0.022 A 
ATOM     15  C   UNK d   0      -2.667  18.763  -6.798  0.00  0.00     0.042 A 
ATOM     16  H   UNK d   0      -4.682  19.634  -6.662  0.00  0.00     0.166 HD
ATOM     17  C   UNK d   0      -2.809  17.385  -6.540  0.00  0.00     0.062 C 
ATOM     18  C   UNK d   0      -1.385  19.271  -7.087  0.00  0.00    -0.013 A 
ATOM     19  C   UNK d   0      -3.530  16.762  -5.553  0.00  0.00     0.067 A 
ATOM     20  N   UNK d   0      -4.375  17.522  -4.851  0.00  0.00    -0.248 NA
ATOM     21  C   UNK d   0      -3.622  15.414  -5.018  0.00  0.00    -0.011 A 
ATOM     22  C   UNK d   0      -5.011  16.768  -3.896  0.00  0.00     0.066 A 
ATOM     23  C   UNK d   0      -5.950  17.428  -3.115  0.00  0.00     0.062 C 
ATOM     24  C   UNK d   0      -4.487  15.425  -4.046  0.00  0.00    -0.020 A 
ATOM     25  C   UNK d   0      -6.396  18.752  -3.241  0.00  0.00     0.041 A 
ATOM     26  N   UNK d   0      -5.743  19.886  -3.522  0.00  0.00    -0.355 N 
ATOM     27  C   UNK d   0      -7.773  19.019  -3.074  0.00  0.00    -0.022 A 
ATOM     28  C   UNK d   0      -6.658  20.868  -3.543  0.00  0.00     0.042 A 
ATOM     29  H   UNK d   0      -4.642  19.998  -3.678  0.00  0.00     0.166 HD
ATOM     30  C   UNK d   0      -6.530  22.244  -3.790  0.00  0.00     0.062 C 
ATOM     31  C   UNK d   0      -7.947  20.355  -3.264  0.00  0.00    -0.013 A 
ATOM     32  C   UNK d   0      -5.733  22.872  -4.734  0.00  0.00     0.066 A 
BRANCH   8  33
ATOM     33  C   UNK d   0      -4.146  25.420  -6.857  0.00  0.00     0.151 C 
BRANCH  33  34
ATOM     34  C   UNK d   0      -4.686  25.512  -8.226  0.00  0.00     0.143 C 
ATOM     35  O   UNK d   0      -3.953  25.350  -9.211  0.00  0.00    -0.650 OA
BRANCH  34  36
ATOM     36  O   UNK d   0      -6.023  25.782  -8.408  0.00  0.00    -0.776 OA
ATOM     37  H   UNK d   0      -6.357  26.287  -9.239  0.00  0.00     0.167 HD
ENDBRANCH  34  36
ENDBRANCH  33  34
ENDBRANCH   8  33
BRANCH  31  38
ATOM     38  C   UNK d   0      -9.260  21.101  -3.198  0.00  0.00     0.151 C 
BRANCH  38  39
ATOM     39  C   UNK d   0      -9.872  21.277  -4.498  0.00  0.00     0.143 C 
ATOM     40  O   UNK d   0      -9.863  20.384  -5.363  0.00  0.00    -0.650 OA
BRANCH  39  41
ATOM     41  O   UNK d   0     -10.499  22.484  -4.804  0.00  0.00    -0.776 OA
ATOM     42  H   UNK d   0     -11.059  22.914  -4.061  0.00  0.00     0.167 HD
ENDBRANCH  39  41
ENDBRANCH  38  39
ENDBRANCH  31  38
BRANCH  27  43
ATOM     43  C   UNK d   0      -8.900  18.072  -2.745  0.00  0.00     0.052 C 
BRANCH  43  44
ATOM     44  C   UNK d   0      -8.433  16.694  -2.404  0.00  0.00     0.115 C 
BRANCH  44  45
ATOM     45  C   UNK d   0      -9.012  15.785  -3.427  0.00  0.00     0.139 C 
ATOM     46  O   UNK d   0     -10.261  15.762  -3.560  0.00  0.00    -0.650 OA
BRANCH  45  47
ATOM     47  O   UNK d   0      -8.239  14.977  -4.232  0.00  0.00    -0.776 OA
ATOM     48  H   UNK d   0      -7.643  15.347  -4.990  0.00  0.00     0.167 HD
ENDBRANCH  45  47
ENDBRANCH  44  45
ENDBRANCH  43  44
ENDBRANCH  27  43
BRANCH  24  49
ATOM     49  C   UNK d   0      -4.915  14.262  -3.251  0.00  0.00     0.052 C 
BRANCH  49  50
ATOM     50  C   UNK d   0      -4.428  14.390  -1.830  0.00  0.00     0.115 C 
BRANCH  50  51
ATOM     51  C   UNK d   0      -2.987  14.387  -1.618  0.00  0.00     0.139 C 
ATOM     52  O   UNK d   0      -2.357  15.402  -1.239  0.00  0.00    -0.650 OA
BRANCH  51  53
ATOM     53  O   UNK d   0      -2.263  13.225  -1.841  0.00  0.00    -0.776 OA
ATOM     54  H   UNK d   0      -1.559  12.968  -1.172  0.00  0.00     0.167 HD
ENDBRANCH  51  53
ENDBRANCH  50  51
ENDBRANCH  49  50
ENDBRANCH  24  49
BRANCH  21  55
ATOM     55  C   UNK d   0      -2.838  14.255  -5.538  0.00  0.00     0.151 C 
BRANCH  55  56
ATOM     56  C   UNK d   0      -1.392  14.432  -5.337  0.00  0.00     0.143 C 
ATOM     57  O   UNK d   0      -0.571  14.405  -6.275  0.00  0.00    -0.650 OA
BRANCH  56  58
ATOM     58  O   UNK d   0      -0.938  14.637  -4.035  0.00  0.00    -0.776 OA
ATOM     59  H   UNK d   0      -1.531  14.219  -3.295  0.00  0.00     0.167 HD
ENDBRANCH  56  58
ENDBRANCH  55  56
ENDBRANCH  21  55
BRANCH  18  60
ATOM     60  C   UNK d   0      -0.061  18.551  -7.163  0.00  0.00     0.151 C 
BRANCH  60  61
ATOM     61  C   UNK d   0       0.430  18.462  -5.779  0.00  0.00     0.143 C 
ATOM     62  O   UNK d   0       0.948  19.362  -5.116  0.00  0.00    -0.650 OA
BRANCH  61  63
ATOM     63  O   UNK d   0       0.279  17.195  -5.166  0.00  0.00    -0.776 OA
ATOM     64  H   UNK d   0       1.073  16.607  -4.990  0.00  0.00     0.167 HD
ENDBRANCH  61  63
ENDBRANCH  60  61
ENDBRANCH  18  60
BRANCH  14  65
ATOM     65  C   UNK d   0      -0.436  21.508  -7.735  0.00  0.00     0.052 C 
BRANCH  65  66
ATOM     66  C   UNK d   0       0.172  22.271  -6.613  0.00  0.00     0.115 C 
BRANCH  66  67
ATOM     67  C   UNK d   0      -0.366  23.551  -6.249  0.00  0.00     0.139 C 
ATOM     68  O   UNK d   0      -0.949  23.670  -5.109  0.00  0.00    -0.650 OA
BRANCH  67  69
ATOM     69  O   UNK d   0      -0.341  24.730  -6.993  0.00  0.00    -0.776 OA
ATOM     70  H   UNK d   0      -0.136  25.590  -6.464  0.00  0.00     0.167 HD
ENDBRANCH  67  69
ENDBRANCH  66  67
ENDBRANCH  65  66
ENDBRANCH  14  65
ENDBRANCH   6   7
ENDBRANCH   5   6
ENDBRANCH   2   5
TORSDOF 28
ENDMDL
