MODEL 1
REMARK VINA RESULT:      -8.8      0.000      0.000
REMARK  28 active torsions:
REMARK  status: ('A' for Active; 'I' for Inactive)
REMARK    1  A    between atoms: C1_2  and  O2_3 
REMARK    2  A    between atoms: C1_2  and  C2_4 
REMARK    3  A    between atoms: C2_4  and  C3_5 
REMARK    4  A    between atoms: C3_5  and  C4_6 
REMARK    5  A    between atoms: C5_7  and  C6_8 
REMARK    6  A    between atoms: C6_8  and  C7_9 
REMARK    7  A    between atoms: C7_9  and  O4_11 
REMARK    8  A    between atoms: C20_28  and  C21_29 
REMARK    9  A    between atoms: C21_29  and  C22_30 
REMARK   10  A    between atoms: C22_30  and  O6_32 
REMARK   11  A    between atoms: C23_33  and  C24_34 
REMARK   12  A    between atoms: C24_34  and  C25_35 
REMARK   13  A    between atoms: C25_35  and  C26_36 
REMARK   14  A    between atoms: C26_36  and  O8_38 
REMARK   15  A    between atoms: C27_39  and  C28_40 
REMARK   16  A    between atoms: C28_40  and  C29_41 
REMARK   17  A    between atoms: C29_41  and  O10_43 
REMARK   18  A    between atoms: C30_44  and  C31_45 
REMARK   19  A    between atoms: C31_45  and  C32_46 
REMARK   20  A    between atoms: C32_46  and  C33_47 
REMARK   21  A    between atoms: C33_47  and  O12_49 
REMARK   22  A    between atoms: C34_50  and  C35_51 
REMARK   23  A    between atoms: C35_51  and  C36_52 
REMARK   24  A    between atoms: C36_52  and  O14_54 
REMARK   25  A    between atoms: C37_55  and  C38_56 
REMARK   26  A    between atoms: C38_56  and  C39_57 
REMARK   27  A    between atoms: C39_57  and  C40_58 
REMARK   28  A    between atoms: C40_58  and  O16_60 
ROOT
HETATM    1  O1  UNL     1     -35.125  15.646   1.303  1.00  0.00    -0.650 OA
HETATM    2  C1  UNL     1     -35.009  14.785   2.184  1.00  0.00     0.139 C 
ENDROOT
BRANCH   2   3
HETATM    3  O2  UNL     1     -36.122  13.985   2.451  1.00  0.00    -0.776 OA
HETATM    4  H1  UNL     1     -36.344  13.651   3.383  1.00  0.00     0.167 HD
ENDBRANCH   2   3
BRANCH   2   5
HETATM    5  C2  UNL     1     -33.764  14.575   2.948  1.00  0.00     0.115 C 
BRANCH   5   6
HETATM    6  C3  UNL     1     -32.607  15.372   2.467  1.00  0.00     0.052 C 
BRANCH   6   7
HETATM    7  C4  UNL     1     -31.970  14.722   1.290  1.00  0.00    -0.020 A 
HETATM    8  C5  UNL     1     -31.313  15.311   0.288  1.00  0.00    -0.011 A 
HETATM    9  C8  UNL     1     -30.857  14.305  -0.641  1.00  0.00     0.067 A 
HETATM   10  C9  UNL     1     -30.148  14.351  -1.861  1.00  0.00     0.062 C 
HETATM   11  N4  UNL     1     -31.253  13.126  -0.171  1.00  0.00    -0.248 NA
HETATM   12  C10 UNL     1     -29.914  13.260  -2.696  1.00  0.00     0.041 A 
HETATM   13  N1  UNL     1     -30.669  12.203  -3.051  1.00  0.00    -0.355 N 
HETATM   14  C37 UNL     1     -28.636  13.144  -3.289  1.00  0.00    -0.022 A 
HETATM   15  C11 UNL     1     -29.914  11.418  -3.842  1.00  0.00     0.042 A 
HETATM   16  H10 UNL     1     -31.735  12.028  -2.769  1.00  0.00     0.166 HD
HETATM   17  C12 UNL     1     -30.141  10.189  -4.463  1.00  0.00     0.062 C 
HETATM   18  C34 UNL     1     -28.637  12.002  -3.998  1.00  0.00    -0.013 A 
HETATM   19  C13 UNL     1     -30.800   9.094  -3.872  1.00  0.00     0.066 A 
HETATM   20  N2  UNL     1     -31.246   9.213  -2.613  1.00  0.00    -0.248 NA
HETATM   21  C30 UNL     1     -31.149   7.774  -4.335  1.00  0.00    -0.020 A 
HETATM   22  C14 UNL     1     -31.851   8.071  -2.241  1.00  0.00     0.067 A 
HETATM   23  C15 UNL     1     -32.399   7.984  -0.954  1.00  0.00     0.062 C 
HETATM   24  C27 UNL     1     -31.794   7.126  -3.351  1.00  0.00    -0.011 A 
HETATM   25  C16 UNL     1     -32.674   9.050  -0.070  1.00  0.00     0.041 A 
HETATM   26  N3  UNL     1     -31.981  10.168   0.178  1.00  0.00    -0.355 N 
HETATM   27  C23 UNL     1     -33.879   9.033   0.675  1.00  0.00    -0.022 A 
HETATM   28  C17 UNL     1     -32.682  10.896   1.055  1.00  0.00     0.042 A 
HETATM   29  H13 UNL     1     -30.977  10.439  -0.247  1.00  0.00     0.166 HD
HETATM   30  C18 UNL     1     -32.419  12.152   1.635  1.00  0.00     0.062 C 
HETATM   31  C20 UNL     1     -33.873  10.215   1.383  1.00  0.00    -0.013 A 
HETATM   32  C19 UNL     1     -31.930  13.295   0.991  1.00  0.00     0.066 A 
BRANCH   8  33
HETATM   33  C6  UNL     1     -31.098  16.780   0.182  1.00  0.00     0.151 C 
BRANCH  33  34
HETATM   34  C7  UNL     1     -32.041  17.441  -0.749  1.00  0.00     0.143 C 
HETATM   35  O3  UNL     1     -31.702  18.500  -1.312  1.00  0.00    -0.650 OA
BRANCH  34  36
HETATM   36  O4  UNL     1     -33.270  16.855  -0.960  1.00  0.00    -0.776 OA
HETATM   37  H8  UNL     1     -34.062  17.168  -0.399  1.00  0.00     0.167 HD
ENDBRANCH  34  36
ENDBRANCH  33  34
ENDBRANCH   8  33
BRANCH  31  38
HETATM   38  C21 UNL     1     -34.976  10.682   2.313  1.00  0.00     0.151 C 
BRANCH  38  39
HETATM   39  C22 UNL     1     -34.994   9.750   3.464  1.00  0.00     0.143 C 
HETATM   40  O5  UNL     1     -33.910   9.374   3.961  1.00  0.00    -0.650 OA
BRANCH  39  41
HETATM   41  O6  UNL     1     -36.164   9.267   4.030  1.00  0.00    -0.776 OA
HETATM   42  H17 UNL     1     -37.053   9.281   3.514  1.00  0.00     0.167 HD
ENDBRANCH  39  41
ENDBRANCH  38  39
ENDBRANCH  31  38
BRANCH  27  43
HETATM   43  C24 UNL     1     -34.955   8.008   0.730  1.00  0.00     0.052 C 
BRANCH  43  44
HETATM   44  C25 UNL     1     -34.771   7.066   1.843  1.00  0.00     0.115 C 
BRANCH  44  45
HETATM   45  C26 UNL     1     -33.488   6.389   2.006  1.00  0.00     0.139 C 
HETATM   46  O7  UNL     1     -32.981   5.468   1.375  1.00  0.00    -0.650 OA
BRANCH  45  47
HETATM   47  O8  UNL     1     -32.698   6.883   3.082  1.00  0.00    -0.776 OA
HETATM   48  H22 UNL     1     -31.714   6.976   3.028  1.00  0.00     0.167 HD
ENDBRANCH  45  47
ENDBRANCH  44  45
ENDBRANCH  43  44
ENDBRANCH  27  43
BRANCH  24  49
HETATM   49  C28 UNL     1     -32.350   5.737  -3.372  1.00  0.00     0.151 C 
BRANCH  49  50
HETATM   50  C29 UNL     1     -31.619   4.858  -2.427  1.00  0.00     0.143 C 
HETATM   51  O9  UNL     1     -30.477   4.455  -2.744  1.00  0.00    -0.650 OA
BRANCH  50  52
HETATM   52  O10 UNL     1     -32.136   4.461  -1.207  1.00  0.00    -0.776 OA
HETATM   53  H25 UNL     1     -31.598   3.873  -0.557  1.00  0.00     0.167 HD
ENDBRANCH  50  52
ENDBRANCH  49  50
ENDBRANCH  24  49
BRANCH  21  54
HETATM   54  C31 UNL     1     -30.875   7.195  -5.681  1.00  0.00     0.052 C 
BRANCH  54  55
HETATM   55  C32 UNL     1     -29.760   6.213  -5.718  1.00  0.00     0.115 C 
BRANCH  55  56
HETATM   56  C33 UNL     1     -29.838   5.537  -7.065  1.00  0.00     0.139 C 
HETATM   57  O11 UNL     1     -29.592   6.172  -8.121  1.00  0.00    -0.650 OA
BRANCH  56  58
HETATM   58  O12 UNL     1     -30.182   4.198  -7.192  1.00  0.00    -0.776 OA
HETATM   59  H30 UNL     1     -29.400   3.538  -7.159  1.00  0.00     0.167 HD
ENDBRANCH  56  58
ENDBRANCH  55  56
ENDBRANCH  54  55
ENDBRANCH  21  54
BRANCH  18  60
HETATM   60  C35 UNL     1     -27.457  11.532  -4.795  1.00  0.00     0.151 C 
BRANCH  60  61
HETATM   61  C36 UNL     1     -26.462  11.019  -3.851  1.00  0.00     0.143 C 
HETATM   62  O13 UNL     1     -25.254  11.373  -3.960  1.00  0.00    -0.650 OA
BRANCH  61  63
HETATM   63  O14 UNL     1     -26.784  10.148  -2.818  1.00  0.00    -0.776 OA
HETATM   64  H33 UNL     1     -26.035   9.730  -2.292  1.00  0.00     0.167 HD
ENDBRANCH  61  63
ENDBRANCH  60  61
ENDBRANCH  18  60
BRANCH  14  65
HETATM   65  C38 UNL     1     -27.458  14.072  -3.217  1.00  0.00     0.052 C 
BRANCH  65  66
HETATM   66  C39 UNL     1     -27.581  15.119  -4.285  1.00  0.00     0.115 C 
BRANCH  66  67
HETATM   67  C40 UNL     1     -27.544  16.477  -3.623  1.00  0.00     0.139 C 
HETATM   68  O15 UNL     1     -26.446  16.985  -3.275  1.00  0.00    -0.650 OA
BRANCH  67  69
HETATM   69  O16 UNL     1     -28.700  17.170  -3.392  1.00  0.00    -0.776 OA
HETATM   70  H38 UNL     1     -28.972  17.950  -3.966  1.00  0.00     0.167 HD
ENDBRANCH  67  69
ENDBRANCH  66  67
ENDBRANCH  65  66
ENDBRANCH  14  65
ENDBRANCH   6   7
ENDBRANCH   5   6
ENDBRANCH   2   5
TORSDOF 28
ENDMDL
MODEL 2
REMARK VINA RESULT:      -8.6      1.630     10.742
REMARK  28 active torsions:
REMARK  status: ('A' for Active; 'I' for Inactive)
REMARK    1  A    between atoms: C1_2  and  O2_3 
REMARK    2  A    between atoms: C1_2  and  C2_4 
REMARK    3  A    between atoms: C2_4  and  C3_5 
REMARK    4  A    between atoms: C3_5  and  C4_6 
REMARK    5  A    between atoms: C5_7  and  C6_8 
REMARK    6  A    between atoms: C6_8  and  C7_9 
REMARK    7  A    between atoms: C7_9  and  O4_11 
REMARK    8  A    between atoms: C20_28  and  C21_29 
REMARK    9  A    between atoms: C21_29  and  C22_30 
REMARK   10  A    between atoms: C22_30  and  O6_32 
REMARK   11  A    between atoms: C23_33  and  C24_34 
REMARK   12  A    between atoms: C24_34  and  C25_35 
REMARK   13  A    between atoms: C25_35  and  C26_36 
REMARK   14  A    between atoms: C26_36  and  O8_38 
REMARK   15  A    between atoms: C27_39  and  C28_40 
REMARK   16  A    between atoms: C28_40  and  C29_41 
REMARK   17  A    between atoms: C29_41  and  O10_43 
REMARK   18  A    between atoms: C30_44  and  C31_45 
REMARK   19  A    between atoms: C31_45  and  C32_46 
REMARK   20  A    between atoms: C32_46  and  C33_47 
REMARK   21  A    between atoms: C33_47  and  O12_49 
REMARK   22  A    between atoms: C34_50  and  C35_51 
REMARK   23  A    between atoms: C35_51  and  C36_52 
REMARK   24  A    between atoms: C36_52  and  O14_54 
REMARK   25  A    between atoms: C37_55  and  C38_56 
REMARK   26  A    between atoms: C38_56  and  C39_57 
REMARK   27  A    between atoms: C39_57  and  C40_58 
REMARK   28  A    between atoms: C40_58  and  O16_60 
ROOT
HETATM    1  O1  UNL     1     -28.379   3.815  -6.024  1.00  0.00    -0.650 OA
HETATM    2  C1  UNL     1     -29.453   4.083  -5.473  1.00  0.00     0.139 C 
ENDROOT
BRANCH   2   3
HETATM    3  O2  UNL     1     -30.541   3.252  -5.747  1.00  0.00    -0.776 OA
HETATM    4  H1  UNL     1     -31.497   3.517  -5.536  1.00  0.00     0.167 HD
ENDBRANCH   2   3
BRANCH   2   5
HETATM    5  C2  UNL     1     -29.625   5.225  -4.553  1.00  0.00     0.115 C 
BRANCH   5   6
HETATM    6  C3  UNL     1     -30.764   6.117  -4.889  1.00  0.00     0.052 C 
BRANCH   6   7
HETATM    7  C4  UNL     1     -31.279   6.798  -3.671  1.00  0.00    -0.020 A 
HETATM    8  C5  UNL     1     -32.210   6.358  -2.820  1.00  0.00    -0.011 A 
HETATM    9  C8  UNL     1     -32.403   7.335  -1.776  1.00  0.00     0.067 A 
HETATM   10  C9  UNL     1     -33.254   7.407  -0.651  1.00  0.00     0.062 C 
HETATM   11  N4  UNL     1     -31.577   8.346  -2.025  1.00  0.00    -0.248 NA
HETATM   12  C10 UNL     1     -33.392   8.516   0.181  1.00  0.00     0.041 A 
HETATM   13  N1  UNL     1     -33.418   9.841  -0.059  1.00  0.00    -0.355 N 
HETATM   14  C37 UNL     1     -33.480   8.289   1.574  1.00  0.00    -0.022 A 
HETATM   15  C11 UNL     1     -33.513  10.462   1.132  1.00  0.00     0.042 A 
HETATM   16  H10 UNL     1     -33.399  10.331  -1.061  1.00  0.00     0.166 HD
HETATM   17  C12 UNL     1     -33.536  11.806   1.507  1.00  0.00     0.062 C 
HETATM   18  C34 UNL     1     -33.554   9.496   2.162  1.00  0.00    -0.013 A 
HETATM   19  C13 UNL     1     -32.721  12.813   0.958  1.00  0.00     0.066 A 
HETATM   20  N2  UNL     1     -31.839  12.480   0.005  1.00  0.00    -0.248 NA
HETATM   21  C30 UNL     1     -32.603  14.233   1.183  1.00  0.00    -0.020 A 
HETATM   22  C14 UNL     1     -31.171  13.578  -0.394  1.00  0.00     0.067 A 
HETATM   23  C15 UNL     1     -30.200  13.453  -1.396  1.00  0.00     0.062 C 
HETATM   24  C27 UNL     1     -31.657  14.724   0.366  1.00  0.00    -0.011 A 
HETATM   25  C16 UNL     1     -30.021  12.365  -2.279  1.00  0.00     0.041 A 
HETATM   26  N3  UNL     1     -30.130  11.049  -2.063  1.00  0.00    -0.355 N 
HETATM   27  C23 UNL     1     -29.723  12.626  -3.640  1.00  0.00    -0.022 A 
HETATM   28  C17 UNL     1     -29.921  10.426  -3.229  1.00  0.00     0.042 A 
HETATM   29  H13 UNL     1     -30.330  10.549  -1.078  1.00  0.00     0.166 HD
HETATM   30  C18 UNL     1     -29.935   9.059  -3.563  1.00  0.00     0.062 C 
HETATM   31  C20 UNL     1     -29.667  11.384  -4.233  1.00  0.00    -0.013 A 
HETATM   32  C19 UNL     1     -30.865   8.096  -3.151  1.00  0.00     0.066 A 
BRANCH   8  33
HETATM   33  C6  UNL     1     -32.912   5.052  -2.958  1.00  0.00     0.151 C 
BRANCH  33  34
HETATM   34  C7  UNL     1     -32.109   3.906  -2.474  1.00  0.00     0.143 C 
HETATM   35  O3  UNL     1     -31.500   4.000  -1.391  1.00  0.00    -0.650 OA
BRANCH  34  36
HETATM   36  O4  UNL     1     -32.063   2.767  -3.248  1.00  0.00    -0.776 OA
HETATM   37  H8  UNL     1     -32.315   1.876  -2.819  1.00  0.00     0.167 HD
ENDBRANCH  34  36
ENDBRANCH  33  34
ENDBRANCH   8  33
BRANCH  31  38
HETATM   38  C21 UNL     1     -29.407  11.130  -5.705  1.00  0.00     0.151 C 
BRANCH  38  39
HETATM   39  C22 UNL     1     -30.520  10.288  -6.201  1.00  0.00     0.143 C 
HETATM   40  O5  UNL     1     -31.698  10.654  -5.999  1.00  0.00    -0.650 OA
BRANCH  39  41
HETATM   41  O6  UNL     1     -30.323   9.100  -6.889  1.00  0.00    -0.776 OA
HETATM   42  H17 UNL     1     -31.098   8.623  -7.365  1.00  0.00     0.167 HD
ENDBRANCH  39  41
ENDBRANCH  38  39
ENDBRANCH  31  38
BRANCH  27  43
HETATM   43  C24 UNL     1     -29.509  13.920  -4.342  1.00  0.00     0.052 C 
BRANCH  43  44
HETATM   44  C25 UNL     1     -28.102  14.122  -4.718  1.00  0.00     0.115 C 
BRANCH  44  45
HETATM   45  C26 UNL     1     -27.045  13.609  -3.851  1.00  0.00     0.139 C 
HETATM   46  O7  UNL     1     -26.712  13.931  -2.715  1.00  0.00    -0.650 OA
BRANCH  45  47
HETATM   47  O8  UNL     1     -26.274  12.561  -4.426  1.00  0.00    -0.776 OA
HETATM   48  H22 UNL     1     -25.859  12.628  -5.323  1.00  0.00     0.167 HD
ENDBRANCH  45  47
ENDBRANCH  44  45
ENDBRANCH  43  44
ENDBRANCH  27  43
BRANCH  24  49
HETATM   49  C28 UNL     1     -31.194  16.142   0.240  1.00  0.00     0.151 C 
BRANCH  49  50
HETATM   50  C29 UNL     1     -31.480  16.675  -1.114  1.00  0.00     0.143 C 
HETATM   51  O9  UNL     1     -30.527  16.832  -1.911  1.00  0.00    -0.650 OA
BRANCH  50  52
HETATM   52  O10 UNL     1     -32.752  17.008  -1.544  1.00  0.00    -0.776 OA
HETATM   53  H25 UNL     1     -33.570  16.428  -1.315  1.00  0.00     0.167 HD
ENDBRANCH  50  52
ENDBRANCH  49  50
ENDBRANCH  24  49
BRANCH  21  54
HETATM   54  C31 UNL     1     -33.395  15.057   2.140  1.00  0.00     0.052 C 
BRANCH  54  55
HETATM   55  C32 UNL     1     -34.846  15.146   1.826  1.00  0.00     0.115 C 
BRANCH  55  56
HETATM   56  C33 UNL     1     -35.007  16.343   0.921  1.00  0.00     0.139 C 
HETATM   57  O11 UNL     1     -34.139  17.251   0.890  1.00  0.00    -0.650 OA
BRANCH  56  58
HETATM   58  O12 UNL     1     -36.112  16.490   0.093  1.00  0.00    -0.776 OA
HETATM   59  H30 UNL     1     -36.336  15.677  -0.488  1.00  0.00     0.167 HD
ENDBRANCH  56  58
ENDBRANCH  55  56
ENDBRANCH  54  55
ENDBRANCH  21  54
BRANCH  18  60
HETATM   60  C35 UNL     1     -33.679   9.678   3.645  1.00  0.00     0.151 C 
BRANCH  60  61
HETATM   61  C36 UNL     1     -35.085   9.963   3.939  1.00  0.00     0.143 C 
HETATM   62  O13 UNL     1     -35.418  11.109   4.353  1.00  0.00    -0.650 OA
BRANCH  61  63
HETATM   63  O14 UNL     1     -36.092   9.021   3.781  1.00  0.00    -0.776 OA
HETATM   64  H33 UNL     1     -37.015   9.243   4.116  1.00  0.00     0.167 HD
ENDBRANCH  61  63
ENDBRANCH  60  61
ENDBRANCH  18  60
BRANCH  14  65
HETATM   65  C38 UNL     1     -33.514   6.995   2.334  1.00  0.00     0.052 C 
BRANCH  65  66
HETATM   66  C39 UNL     1     -32.175   6.751   2.965  1.00  0.00     0.115 C 
BRANCH  66  67
HETATM   67  C40 UNL     1     -32.387   5.952   4.230  1.00  0.00     0.139 C 
HETATM   68  O15 UNL     1     -32.786   6.519   5.281  1.00  0.00    -0.650 OA
BRANCH  67  69
HETATM   69  O16 UNL     1     -32.150   4.606   4.251  1.00  0.00    -0.776 OA
HETATM   70  H38 UNL     1     -32.877   3.937   4.057  1.00  0.00     0.167 HD
ENDBRANCH  67  69
ENDBRANCH  66  67
ENDBRANCH  65  66
ENDBRANCH  14  65
ENDBRANCH   6   7
ENDBRANCH   5   6
ENDBRANCH   2   5
TORSDOF 28
ENDMDL
MODEL 3
REMARK VINA RESULT:      -8.4      1.737      2.074
REMARK  28 active torsions:
REMARK  status: ('A' for Active; 'I' for Inactive)
REMARK    1  A    between atoms: C1_2  and  O2_3 
REMARK    2  A    between atoms: C1_2  and  C2_4 
REMARK    3  A    between atoms: C2_4  and  C3_5 
REMARK    4  A    between atoms: C3_5  and  C4_6 
REMARK    5  A    between atoms: C5_7  and  C6_8 
REMARK    6  A    between atoms: C6_8  and  C7_9 
REMARK    7  A    between atoms: C7_9  and  O4_11 
REMARK    8  A    between atoms: C20_28  and  C21_29 
REMARK    9  A    between atoms: C21_29  and  C22_30 
REMARK   10  A    between atoms: C22_30  and  O6_32 
REMARK   11  A    between atoms: C23_33  and  C24_34 
REMARK   12  A    between atoms: C24_34  and  C25_35 
REMARK   13  A    between atoms: C25_35  and  C26_36 
REMARK   14  A    between atoms: C26_36  and  O8_38 
REMARK   15  A    between atoms: C27_39  and  C28_40 
REMARK   16  A    between atoms: C28_40  and  C29_41 
REMARK   17  A    between atoms: C29_41  and  O10_43 
REMARK   18  A    between atoms: C30_44  and  C31_45 
REMARK   19  A    between atoms: C31_45  and  C32_46 
REMARK   20  A    between atoms: C32_46  and  C33_47 
REMARK   21  A    between atoms: C33_47  and  O12_49 
REMARK   22  A    between atoms: C34_50  and  C35_51 
REMARK   23  A    between atoms: C35_51  and  C36_52 
REMARK   24  A    between atoms: C36_52  and  O14_54 
REMARK   25  A    between atoms: C37_55  and  C38_56 
REMARK   26  A    between atoms: C38_56  and  C39_57 
REMARK   27  A    between atoms: C39_57  and  C40_58 
REMARK   28  A    between atoms: C40_58  and  O16_60 
ROOT
HETATM    1  O1  UNL     1     -34.812  14.276   2.229  1.00  0.00    -0.650 OA
HETATM    2  C1  UNL     1     -34.391  13.859   3.315  1.00  0.00     0.139 C 
ENDROOT
BRANCH   2   3
HETATM    3  O2  UNL     1     -34.836  12.605   3.738  1.00  0.00    -0.776 OA
HETATM    4  H1  UNL     1     -35.804  12.313   3.656  1.00  0.00     0.167 HD
ENDBRANCH   2   3
BRANCH   2   5
HETATM    5  C2  UNL     1     -33.454  14.621   4.163  1.00  0.00     0.115 C 
BRANCH   5   6
HETATM    6  C3  UNL     1     -32.045  14.156   4.093  1.00  0.00     0.052 C 
BRANCH   6   7
HETATM    7  C4  UNL     1     -31.663  13.835   2.692  1.00  0.00    -0.020 A 
HETATM    8  C5  UNL     1     -31.309  14.688   1.727  1.00  0.00    -0.011 A 
HETATM    9  C8  UNL     1     -31.017  13.950   0.521  1.00  0.00     0.067 A 
HETATM   10  C9  UNL     1     -30.625  14.324  -0.783  1.00  0.00     0.062 C 
HETATM   11  N4  UNL     1     -31.203  12.662   0.793  1.00  0.00    -0.248 NA
HETATM   12  C10 UNL     1     -30.520  13.458  -1.869  1.00  0.00     0.041 A 
HETATM   13  N1  UNL     1     -31.260  12.408  -2.276  1.00  0.00    -0.355 N 
HETATM   14  C37 UNL     1     -29.416  13.618  -2.737  1.00  0.00    -0.022 A 
HETATM   15  C11 UNL     1     -30.661  11.895  -3.366  1.00  0.00     0.042 A 
HETATM   16  H10 UNL     1     -32.212  12.052  -1.815  1.00  0.00     0.166 HD
HETATM   17  C12 UNL     1     -30.941  10.795  -4.180  1.00  0.00     0.062 C 
HETATM   18  C34 UNL     1     -29.504  12.649  -3.664  1.00  0.00    -0.013 A 
HETATM   19  C13 UNL     1     -31.359   9.533  -3.718  1.00  0.00     0.066 A 
HETATM   20  N2  UNL     1     -31.498   9.344  -2.398  1.00  0.00    -0.248 NA
HETATM   21  C30 UNL     1     -31.712   8.298  -4.374  1.00  0.00    -0.020 A 
HETATM   22  C14 UNL     1     -31.913   8.085  -2.165  1.00  0.00     0.067 A 
HETATM   23  C15 UNL     1     -32.130   7.678  -0.842  1.00  0.00     0.062 C 
HETATM   24  C27 UNL     1     -32.055   7.395  -3.442  1.00  0.00    -0.011 A 
HETATM   25  C16 UNL     1     -32.261   8.505   0.295  1.00  0.00     0.041 A 
HETATM   26  N3  UNL     1     -31.611   9.627   0.627  1.00  0.00    -0.355 N 
HETATM   27  C23 UNL     1     -33.249   8.194   1.262  1.00  0.00    -0.022 A 
HETATM   28  C17 UNL     1     -32.133  10.075   1.775  1.00  0.00     0.042 A 
HETATM   29  H13 UNL     1     -30.760  10.097   0.065  1.00  0.00     0.166 HD
HETATM   30  C18 UNL     1     -31.830  11.213   2.548  1.00  0.00     0.062 C 
HETATM   31  C20 UNL     1     -33.159   9.203   2.196  1.00  0.00    -0.013 A 
HETATM   32  C19 UNL     1     -31.593  12.512   2.083  1.00  0.00     0.066 A 
BRANCH   8  33
HETATM   33  C6  UNL     1     -31.232  16.164   1.906  1.00  0.00     0.151 C 
BRANCH  33  34
HETATM   34  C7  UNL     1     -32.226  16.901   1.091  1.00  0.00     0.143 C 
HETATM   35  O3  UNL     1     -31.916  18.004   0.602  1.00  0.00    -0.650 OA
BRANCH  34  36
HETATM   36  O4  UNL     1     -33.467  16.334   0.904  1.00  0.00    -0.776 OA
HETATM   37  H8  UNL     1     -34.052  16.161   1.721  1.00  0.00     0.167 HD
ENDBRANCH  34  36
ENDBRANCH  33  34
ENDBRANCH   8  33
BRANCH  31  38
HETATM   38  C21 UNL     1     -34.039   9.338   3.424  1.00  0.00     0.151 C 
BRANCH  38  39
HETATM   39  C22 UNL     1     -35.441   9.375   2.948  1.00  0.00     0.143 C 
HETATM   40  O5  UNL     1     -35.790  10.268   2.146  1.00  0.00    -0.650 OA
BRANCH  39  41
HETATM   41  O6  UNL     1     -36.401   8.458   3.349  1.00  0.00    -0.776 OA
HETATM   42  H17 UNL     1     -37.324   8.419   2.900  1.00  0.00     0.167 HD
ENDBRANCH  39  41
ENDBRANCH  38  39
ENDBRANCH  31  38
BRANCH  27  43
HETATM   43  C24 UNL     1     -34.204   7.056   1.322  1.00  0.00     0.052 C 
BRANCH  43  44
HETATM   44  C25 UNL     1     -33.719   5.967   2.182  1.00  0.00     0.115 C 
BRANCH  44  45
HETATM   45  C26 UNL     1     -34.628   4.886   2.555  1.00  0.00     0.139 C 
HETATM   46  O7  UNL     1     -34.411   3.706   2.807  1.00  0.00    -0.650 OA
BRANCH  45  47
HETATM   47  O8  UNL     1     -35.995   5.274   2.635  1.00  0.00    -0.776 OA
HETATM   48  H22 UNL     1     -36.358   6.067   2.167  1.00  0.00     0.167 HD
ENDBRANCH  45  47
ENDBRANCH  44  45
ENDBRANCH  43  44
ENDBRANCH  27  43
BRANCH  24  49
HETATM   49  C28 UNL     1     -32.499   5.980  -3.649  1.00  0.00     0.151 C 
BRANCH  49  50
HETATM   50  C29 UNL     1     -31.683   5.045  -2.837  1.00  0.00     0.143 C 
HETATM   51  O9  UNL     1     -32.235   4.425  -1.900  1.00  0.00    -0.650 OA
BRANCH  50  52
HETATM   52  O10 UNL     1     -30.336   4.821  -3.063  1.00  0.00    -0.776 OA
HETATM   53  H25 UNL     1     -29.616   5.144  -2.403  1.00  0.00     0.167 HD
ENDBRANCH  50  52
ENDBRANCH  49  50
ENDBRANCH  24  49
BRANCH  21  54
HETATM   54  C31 UNL     1     -31.727   8.037  -5.841  1.00  0.00     0.052 C 
BRANCH  54  55
HETATM   55  C32 UNL     1     -31.660   9.257  -6.688  1.00  0.00     0.115 C 
BRANCH  55  56
HETATM   56  C33 UNL     1     -33.084   9.722  -6.870  1.00  0.00     0.139 C 
HETATM   57  O11 UNL     1     -33.928   9.004  -7.463  1.00  0.00    -0.650 OA
BRANCH  56  58
HETATM   58  O12 UNL     1     -33.517  10.952  -6.394  1.00  0.00    -0.776 OA
HETATM   59  H30 UNL     1     -33.491  11.720  -7.071  1.00  0.00     0.167 HD
ENDBRANCH  56  58
ENDBRANCH  55  56
ENDBRANCH  54  55
ENDBRANCH  21  54
BRANCH  18  60
HETATM   60  C35 UNL     1     -28.518  12.493  -4.784  1.00  0.00     0.151 C 
BRANCH  60  61
HETATM   61  C36 UNL     1     -27.416  11.665  -4.290  1.00  0.00     0.143 C 
HETATM   62  O13 UNL     1     -26.225  12.067  -4.417  1.00  0.00    -0.650 OA
BRANCH  61  63
HETATM   63  O14 UNL     1     -27.616  10.437  -3.674  1.00  0.00    -0.776 OA
HETATM   64  H33 UNL     1     -27.617   9.608  -4.245  1.00  0.00     0.167 HD
ENDBRANCH  61  63
ENDBRANCH  60  61
ENDBRANCH  18  60
BRANCH  14  65
HETATM   65  C38 UNL     1     -28.325  14.650  -2.719  1.00  0.00     0.052 C 
BRANCH  65  66
HETATM   66  C39 UNL     1     -28.800  15.890  -3.417  1.00  0.00     0.115 C 
BRANCH  66  67
HETATM   67  C40 UNL     1     -27.588  16.691  -3.833  1.00  0.00     0.139 C 
HETATM   68  O15 UNL     1     -27.049  16.495  -4.954  1.00  0.00    -0.650 OA
BRANCH  67  69
HETATM   69  O16 UNL     1     -27.061  17.639  -3.000  1.00  0.00    -0.776 OA
HETATM   70  H38 UNL     1     -27.370  17.737  -2.047  1.00  0.00     0.167 HD
ENDBRANCH  67  69
ENDBRANCH  66  67
ENDBRANCH  65  66
ENDBRANCH  14  65
ENDBRANCH   6   7
ENDBRANCH   5   6
ENDBRANCH   2   5
TORSDOF 28
ENDMDL
MODEL 4
REMARK VINA RESULT:      -7.6      1.910      2.467
REMARK  28 active torsions:
REMARK  status: ('A' for Active; 'I' for Inactive)
REMARK    1  A    between atoms: C1_2  and  O2_3 
REMARK    2  A    between atoms: C1_2  and  C2_4 
REMARK    3  A    between atoms: C2_4  and  C3_5 
REMARK    4  A    between atoms: C3_5  and  C4_6 
REMARK    5  A    between atoms: C5_7  and  C6_8 
REMARK    6  A    between atoms: C6_8  and  C7_9 
REMARK    7  A    between atoms: C7_9  and  O4_11 
REMARK    8  A    between atoms: C20_28  and  C21_29 
REMARK    9  A    between atoms: C21_29  and  C22_30 
REMARK   10  A    between atoms: C22_30  and  O6_32 
REMARK   11  A    between atoms: C23_33  and  C24_34 
REMARK   12  A    between atoms: C24_34  and  C25_35 
REMARK   13  A    between atoms: C25_35  and  C26_36 
REMARK   14  A    between atoms: C26_36  and  O8_38 
REMARK   15  A    between atoms: C27_39  and  C28_40 
REMARK   16  A    between atoms: C28_40  and  C29_41 
REMARK   17  A    between atoms: C29_41  and  O10_43 
REMARK   18  A    between atoms: C30_44  and  C31_45 
REMARK   19  A    between atoms: C31_45  and  C32_46 
REMARK   20  A    between atoms: C32_46  and  C33_47 
REMARK   21  A    between atoms: C33_47  and  O12_49 
REMARK   22  A    between atoms: C34_50  and  C35_51 
REMARK   23  A    between atoms: C35_51  and  C36_52 
REMARK   24  A    between atoms: C36_52  and  O14_54 
REMARK   25  A    between atoms: C37_55  and  C38_56 
REMARK   26  A    between atoms: C38_56  and  C39_57 
REMARK   27  A    between atoms: C39_57  and  C40_58 
REMARK   28  A    between atoms: C40_58  and  O16_60 
ROOT
HETATM    1  O1  UNL     1     -34.115  12.590   4.563  1.00  0.00    -0.650 OA
HETATM    2  C1  UNL     1     -33.098  13.189   4.192  1.00  0.00     0.139 C 
ENDROOT
BRANCH   2   3
HETATM    3  O2  UNL     1     -31.867  12.699   4.634  1.00  0.00    -0.776 OA
HETATM    4  H1  UNL     1     -31.580  11.737   4.493  1.00  0.00     0.167 HD
ENDBRANCH   2   3
BRANCH   2   5
HETATM    5  C2  UNL     1     -33.134  14.376   3.315  1.00  0.00     0.115 C 
BRANCH   5   6
HETATM    6  C3  UNL     1     -31.811  15.008   3.083  1.00  0.00     0.052 C 
BRANCH   6   7
HETATM    7  C4  UNL     1     -31.336  14.746   1.698  1.00  0.00    -0.020 A 
HETATM    8  C5  UNL     1     -30.977  15.641   0.774  1.00  0.00    -0.011 A 
HETATM    9  C8  UNL     1     -30.579  14.953  -0.430  1.00  0.00     0.067 A 
HETATM   10  C9  UNL     1     -30.138  15.382  -1.700  1.00  0.00     0.062 C 
HETATM   11  N4  UNL     1     -30.707  13.650  -0.199  1.00  0.00    -0.248 NA
HETATM   12  C10 UNL     1     -29.925  14.552  -2.799  1.00  0.00     0.041 A 
HETATM   13  N1  UNL     1     -30.581  13.475  -3.271  1.00  0.00    -0.355 N 
HETATM   14  C37 UNL     1     -28.786  14.796  -3.599  1.00  0.00    -0.022 A 
HETATM   15  C11 UNL     1     -29.896  13.023  -4.338  1.00  0.00     0.042 A 
HETATM   16  H10 UNL     1     -31.535  13.055  -2.872  1.00  0.00     0.166 HD
HETATM   17  C12 UNL     1     -30.068  11.932  -5.191  1.00  0.00     0.062 C 
HETATM   18  C34 UNL     1     -28.769  13.847  -4.553  1.00  0.00    -0.013 A 
HETATM   19  C13 UNL     1     -30.439  10.637  -4.783  1.00  0.00     0.066 A 
HETATM   20  N2  UNL     1     -30.639  10.406  -3.477  1.00  0.00    -0.248 NA
HETATM   21  C30 UNL     1     -30.686   9.403  -5.486  1.00  0.00    -0.020 A 
HETATM   22  C14 UNL     1     -30.995   9.121  -3.298  1.00  0.00     0.067 A 
HETATM   23  C15 UNL     1     -31.260   8.668  -1.998  1.00  0.00     0.062 C 
HETATM   24  C27 UNL     1     -31.028   8.457  -4.596  1.00  0.00    -0.011 A 
HETATM   25  C16 UNL     1     -31.500   9.456  -0.852  1.00  0.00     0.041 A 
HETATM   26  N3  UNL     1     -30.934  10.603  -0.458  1.00  0.00    -0.355 N 
HETATM   27  C23 UNL     1     -32.520   9.066   0.051  1.00  0.00    -0.022 A 
HETATM   28  C17 UNL     1     -31.542  10.991   0.669  1.00  0.00     0.042 A 
HETATM   29  H13 UNL     1     -30.081  11.133  -0.960  1.00  0.00     0.166 HD
HETATM   30  C18 UNL     1     -31.347  12.123   1.484  1.00  0.00     0.062 C 
HETATM   31  C20 UNL     1     -32.539  10.053   1.012  1.00  0.00    -0.013 A 
HETATM   32  C19 UNL     1     -31.158  13.445   1.063  1.00  0.00     0.066 A 
BRANCH   8  33
HETATM   33  C6  UNL     1     -30.993  17.114   0.992  1.00  0.00     0.151 C 
BRANCH  33  34
HETATM   34  C7  UNL     1     -31.736  17.849  -0.059  1.00  0.00     0.143 C 
HETATM   35  O3  UNL     1     -31.208  18.841  -0.599  1.00  0.00    -0.650 OA
BRANCH  34  36
HETATM   36  O4  UNL     1     -32.994  17.405  -0.402  1.00  0.00    -0.776 OA
HETATM   37  H8  UNL     1     -33.728  18.095  -0.560  1.00  0.00     0.167 HD
ENDBRANCH  34  36
ENDBRANCH  33  34
ENDBRANCH   8  33
BRANCH  31  38
HETATM   38  C21 UNL     1     -33.490  10.107   2.191  1.00  0.00     0.151 C 
BRANCH  38  39
HETATM   39  C22 UNL     1     -34.774  10.647   1.685  1.00  0.00     0.143 C 
HETATM   40  O5  UNL     1     -35.557   9.888   1.075  1.00  0.00    -0.650 OA
BRANCH  39  41
HETATM   41  O6  UNL     1     -35.159  11.968   1.856  1.00  0.00    -0.776 OA
HETATM   42  H17 UNL     1     -36.011  12.338   1.416  1.00  0.00     0.167 HD
ENDBRANCH  39  41
ENDBRANCH  38  39
ENDBRANCH  31  38
BRANCH  27  43
HETATM   43  C24 UNL     1     -33.412   7.875   0.030  1.00  0.00     0.052 C 
BRANCH  43  44
HETATM   44  C25 UNL     1     -33.000   6.855   1.005  1.00  0.00     0.115 C 
BRANCH  44  45
HETATM   45  C26 UNL     1     -33.817   6.624   2.193  1.00  0.00     0.139 C 
HETATM   46  O7  UNL     1     -33.508   6.253   3.320  1.00  0.00    -0.650 OA
BRANCH  45  47
HETATM   47  O8  UNL     1     -35.206   6.870   2.004  1.00  0.00    -0.776 OA
HETATM   48  H22 UNL     1     -35.842   6.168   1.715  1.00  0.00     0.167 HD
ENDBRANCH  45  47
ENDBRANCH  44  45
ENDBRANCH  43  44
ENDBRANCH  27  43
BRANCH  24  49
HETATM   49  C28 UNL     1     -31.379   7.026  -4.861  1.00  0.00     0.151 C 
BRANCH  49  50
HETATM   50  C29 UNL     1     -30.372   6.115  -4.264  1.00  0.00     0.143 C 
HETATM   51  O9  UNL     1     -30.586   5.649  -3.122  1.00  0.00    -0.650 OA
BRANCH  50  52
HETATM   52  O10 UNL     1     -29.203   5.751  -4.909  1.00  0.00    -0.776 OA
HETATM   53  H25 UNL     1     -28.345   5.529  -4.388  1.00  0.00     0.167 HD
ENDBRANCH  50  52
ENDBRANCH  49  50
ENDBRANCH  24  49
BRANCH  21  54
HETATM   54  C31 UNL     1     -30.606   9.179  -6.958  1.00  0.00     0.052 C 
BRANCH  54  55
HETATM   55  C32 UNL     1     -29.367   8.495  -7.414  1.00  0.00     0.115 C 
BRANCH  55  56
HETATM   56  C33 UNL     1     -29.810   7.191  -8.030  1.00  0.00     0.139 C 
HETATM   57  O11 UNL     1     -29.086   6.166  -7.965  1.00  0.00    -0.650 OA
BRANCH  56  58
HETATM   58  O12 UNL     1     -31.027   7.069  -8.689  1.00  0.00    -0.776 OA
HETATM   59  H30 UNL     1     -31.559   6.221  -8.475  1.00  0.00     0.167 HD
ENDBRANCH  56  58
ENDBRANCH  55  56
ENDBRANCH  54  55
ENDBRANCH  21  54
BRANCH  18  60
HETATM   60  C35 UNL     1     -27.715  13.776  -5.618  1.00  0.00     0.151 C 
BRANCH  60  61
HETATM   61  C36 UNL     1     -27.792  15.012  -6.399  1.00  0.00     0.143 C 
HETATM   62  O13 UNL     1     -26.730  15.558  -6.813  1.00  0.00    -0.650 OA
BRANCH  61  63
HETATM   63  O14 UNL     1     -28.995  15.628  -6.717  1.00  0.00    -0.776 OA
HETATM   64  H33 UNL     1     -29.655  15.127  -7.288  1.00  0.00     0.167 HD
ENDBRANCH  61  63
ENDBRANCH  60  61
ENDBRANCH  18  60
BRANCH  14  65
HETATM   65  C38 UNL     1     -27.757  15.884  -3.497  1.00  0.00     0.052 C 
BRANCH  65  66
HETATM   66  C39 UNL     1     -26.514  15.338  -2.858  1.00  0.00     0.115 C 
BRANCH  66  67
HETATM   67  C40 UNL     1     -25.365  16.259  -3.197  1.00  0.00     0.139 C 
HETATM   68  O15 UNL     1     -24.568  16.638  -2.300  1.00  0.00    -0.650 OA
BRANCH  67  69
HETATM   69  O16 UNL     1     -25.176  16.692  -4.480  1.00  0.00    -0.776 OA
HETATM   70  H38 UNL     1     -25.725  17.438  -4.874  1.00  0.00     0.167 HD
ENDBRANCH  67  69
ENDBRANCH  66  67
ENDBRANCH  65  66
ENDBRANCH  14  65
ENDBRANCH   6   7
ENDBRANCH   5   6
ENDBRANCH   2   5
TORSDOF 28
ENDMDL
MODEL 5
REMARK VINA RESULT:      -7.6      1.977      8.523
REMARK  28 active torsions:
REMARK  status: ('A' for Active; 'I' for Inactive)
REMARK    1  A    between atoms: C1_2  and  O2_3 
REMARK    2  A    between atoms: C1_2  and  C2_4 
REMARK    3  A    between atoms: C2_4  and  C3_5 
REMARK    4  A    between atoms: C3_5  and  C4_6 
REMARK    5  A    between atoms: C5_7  and  C6_8 
REMARK    6  A    between atoms: C6_8  and  C7_9 
REMARK    7  A    between atoms: C7_9  and  O4_11 
REMARK    8  A    between atoms: C20_28  and  C21_29 
REMARK    9  A    between atoms: C21_29  and  C22_30 
REMARK   10  A    between atoms: C22_30  and  O6_32 
REMARK   11  A    between atoms: C23_33  and  C24_34 
REMARK   12  A    between atoms: C24_34  and  C25_35 
REMARK   13  A    between atoms: C25_35  and  C26_36 
REMARK   14  A    between atoms: C26_36  and  O8_38 
REMARK   15  A    between atoms: C27_39  and  C28_40 
REMARK   16  A    between atoms: C28_40  and  C29_41 
REMARK   17  A    between atoms: C29_41  and  O10_43 
REMARK   18  A    between atoms: C30_44  and  C31_45 
REMARK   19  A    between atoms: C31_45  and  C32_46 
REMARK   20  A    between atoms: C32_46  and  C33_47 
REMARK   21  A    between atoms: C33_47  and  O12_49 
REMARK   22  A    between atoms: C34_50  and  C35_51 
REMARK   23  A    between atoms: C35_51  and  C36_52 
REMARK   24  A    between atoms: C36_52  and  O14_54 
REMARK   25  A    between atoms: C37_55  and  C38_56 
REMARK   26  A    between atoms: C38_56  and  C39_57 
REMARK   27  A    between atoms: C39_57  and  C40_58 
REMARK   28  A    between atoms: C40_58  and  O16_60 
ROOT
HETATM    1  O1  UNL     1     -33.723   1.645  -3.448  1.00  0.00    -0.650 OA
HETATM    2  C1  UNL     1     -33.589   2.853  -3.216  1.00  0.00     0.139 C 
ENDROOT
BRANCH   2   3
HETATM    3  O2  UNL     1     -34.408   3.738  -3.922  1.00  0.00    -0.776 OA
HETATM    4  H1  UNL     1     -35.312   4.038  -3.576  1.00  0.00     0.167 HD
ENDBRANCH   2   3
BRANCH   2   5
HETATM    5  C2  UNL     1     -32.618   3.385  -2.240  1.00  0.00     0.115 C 
BRANCH   5   6
HETATM    6  C3  UNL     1     -31.261   3.625  -2.793  1.00  0.00     0.052 C 
BRANCH   6   7
HETATM    7  C4  UNL     1     -31.022   5.080  -2.993  1.00  0.00    -0.020 A 
HETATM    8  C5  UNL     1     -30.174   5.658  -3.847  1.00  0.00    -0.011 A 
HETATM    9  C8  UNL     1     -30.264   7.093  -3.713  1.00  0.00     0.067 A 
HETATM   10  C9  UNL     1     -29.602   8.175  -4.332  1.00  0.00     0.062 C 
HETATM   11  N4  UNL     1     -31.172   7.343  -2.775  1.00  0.00    -0.248 NA
HETATM   12  C10 UNL     1     -29.734   9.512  -3.964  1.00  0.00     0.041 A 
HETATM   13  N1  UNL     1     -29.849  10.125  -2.770  1.00  0.00    -0.355 N 
HETATM   14  C37 UNL     1     -29.820  10.475  -4.995  1.00  0.00    -0.022 A 
HETATM   15  C11 UNL     1     -30.010  11.440  -3.008  1.00  0.00     0.042 A 
HETATM   16  H10 UNL     1     -29.787   9.637  -1.768  1.00  0.00     0.166 HD
HETATM   17  C12 UNL     1     -30.220  12.541  -2.175  1.00  0.00     0.062 C 
HETATM   18  C34 UNL     1     -29.991  11.670  -4.401  1.00  0.00    -0.013 A 
HETATM   19  C13 UNL     1     -31.073  12.559  -1.056  1.00  0.00     0.066 A 
HETATM   20  N2  UNL     1     -31.755  11.446  -0.749  1.00  0.00    -0.248 NA
HETATM   21  C30 UNL     1     -31.408  13.561  -0.075  1.00  0.00    -0.020 A 
HETATM   22  C14 UNL     1     -32.498  11.664   0.352  1.00  0.00     0.067 A 
HETATM   23  C15 UNL     1     -33.288  10.620   0.852  1.00  0.00     0.062 C 
HETATM   24  C27 UNL     1     -32.282  13.035   0.799  1.00  0.00    -0.011 A 
HETATM   25  C16 UNL     1     -33.192   9.249   0.532  1.00  0.00     0.041 A 
HETATM   26  N3  UNL     1     -32.943   8.650  -0.639  1.00  0.00    -0.355 N 
HETATM   27  C23 UNL     1     -33.322   8.290   1.566  1.00  0.00    -0.022 A 
HETATM   28  C17 UNL     1     -32.896   7.330  -0.420  1.00  0.00     0.042 A 
HETATM   29  H13 UNL     1     -32.823   9.155  -1.635  1.00  0.00     0.166 HD
HETATM   30  C18 UNL     1     -32.654   6.255  -1.295  1.00  0.00     0.062 C 
HETATM   31  C20 UNL     1     -33.127   7.074   0.948  1.00  0.00    -0.013 A 
HETATM   32  C19 UNL     1     -31.674   6.180  -2.293  1.00  0.00     0.066 A 
BRANCH   8  33
HETATM   33  C6  UNL     1     -29.293   4.907  -4.783  1.00  0.00     0.151 C 
BRANCH  33  34
HETATM   34  C7  UNL     1     -29.939   4.618  -6.085  1.00  0.00     0.143 C 
HETATM   35  O3  UNL     1     -29.867   5.459  -7.002  1.00  0.00    -0.650 OA
BRANCH  34  36
HETATM   36  O4  UNL     1     -30.601   3.420  -6.234  1.00  0.00    -0.776 OA
HETATM   37  H8  UNL     1     -30.787   2.859  -5.403  1.00  0.00     0.167 HD
ENDBRANCH  34  36
ENDBRANCH  33  34
ENDBRANCH   8  33
BRANCH  31  38
HETATM   38  C21 UNL     1     -33.136   5.728   1.646  1.00  0.00     0.151 C 
BRANCH  38  39
HETATM   39  C22 UNL     1     -32.079   5.773   2.683  1.00  0.00     0.143 C 
HETATM   40  O5  UNL     1     -30.948   6.211   2.383  1.00  0.00    -0.650 OA
BRANCH  39  41
HETATM   41  O6  UNL     1     -32.281   5.350   3.988  1.00  0.00    -0.776 OA
HETATM   42  H17 UNL     1     -32.130   4.372   4.263  1.00  0.00     0.167 HD
ENDBRANCH  39  41
ENDBRANCH  38  39
ENDBRANCH  31  38
BRANCH  27  43
HETATM   43  C24 UNL     1     -33.602   8.477   3.015  1.00  0.00     0.052 C 
BRANCH  43  44
HETATM   44  C25 UNL     1     -35.007   8.827   3.270  1.00  0.00     0.115 C 
BRANCH  44  45
HETATM   45  C26 UNL     1     -35.322  10.062   3.983  1.00  0.00     0.139 C 
HETATM   46  O7  UNL     1     -35.210  11.235   3.643  1.00  0.00    -0.650 OA
BRANCH  45  47
HETATM   47  O8  UNL     1     -35.846   9.865   5.291  1.00  0.00    -0.776 OA
HETATM   48  H22 UNL     1     -36.613  10.381   5.646  1.00  0.00     0.167 HD
ENDBRANCH  45  47
ENDBRANCH  44  45
ENDBRANCH  43  44
ENDBRANCH  27  43
BRANCH  24  49
HETATM   49  C28 UNL     1     -32.905  13.697   1.989  1.00  0.00     0.151 C 
BRANCH  49  50
HETATM   50  C29 UNL     1     -31.992  13.655   3.157  1.00  0.00     0.143 C 
HETATM   51  O9  UNL     1     -31.561  14.735   3.621  1.00  0.00    -0.650 OA
BRANCH  50  52
HETATM   52  O10 UNL     1     -31.590  12.478   3.763  1.00  0.00    -0.776 OA
HETATM   53  H25 UNL     1     -31.273  11.668   3.214  1.00  0.00     0.167 HD
ENDBRANCH  50  52
ENDBRANCH  49  50
ENDBRANCH  24  49
BRANCH  21  54
HETATM   54  C31 UNL     1     -30.879  14.951   0.002  1.00  0.00     0.052 C 
BRANCH  54  55
HETATM   55  C32 UNL     1     -31.762  15.985  -0.598  1.00  0.00     0.115 C 
BRANCH  55  56
HETATM   56  C33 UNL     1     -32.113  16.939   0.517  1.00  0.00     0.139 C 
HETATM   57  O11 UNL     1     -31.219  17.441   1.243  1.00  0.00    -0.650 OA
BRANCH  56  58
HETATM   58  O12 UNL     1     -33.427  17.298   0.786  1.00  0.00    -0.776 OA
HETATM   59  H30 UNL     1     -33.764  17.060   1.723  1.00  0.00     0.167 HD
ENDBRANCH  56  58
ENDBRANCH  55  56
ENDBRANCH  54  55
ENDBRANCH  21  54
BRANCH  18  60
HETATM   60  C35 UNL     1     -30.108  12.955  -5.165  1.00  0.00     0.151 C 
BRANCH  60  61
HETATM   61  C36 UNL     1     -28.884  13.724  -4.927  1.00  0.00     0.143 C 
HETATM   62  O13 UNL     1     -28.961  14.951  -4.641  1.00  0.00    -0.650 OA
BRANCH  61  63
HETATM   63  O14 UNL     1     -27.617  13.160  -4.998  1.00  0.00    -0.776 OA
HETATM   64  H33 UNL     1     -27.449  12.439  -5.680  1.00  0.00     0.167 HD
ENDBRANCH  61  63
ENDBRANCH  60  61
ENDBRANCH  18  60
BRANCH  14  65
HETATM   65  C38 UNL     1     -29.725  10.298  -6.483  1.00  0.00     0.052 C 
BRANCH  65  66
HETATM   66  C39 UNL     1     -30.968   9.624  -6.985  1.00  0.00     0.115 C 
BRANCH  66  67
HETATM   67  C40 UNL     1     -30.557   8.508  -7.917  1.00  0.00     0.139 C 
HETATM   68  O15 UNL     1     -31.403   7.970  -8.678  1.00  0.00    -0.650 OA
BRANCH  67  69
HETATM   69  O16 UNL     1     -29.263   8.067  -7.946  1.00  0.00    -0.776 OA
HETATM   70  H38 UNL     1     -28.993   7.250  -8.468  1.00  0.00     0.167 HD
ENDBRANCH  67  69
ENDBRANCH  66  67
ENDBRANCH  65  66
ENDBRANCH  14  65
ENDBRANCH   6   7
ENDBRANCH   5   6
ENDBRANCH   2   5
TORSDOF 28
ENDMDL
MODEL 6
REMARK VINA RESULT:      -7.6     18.890     24.896
REMARK  28 active torsions:
REMARK  status: ('A' for Active; 'I' for Inactive)
REMARK    1  A    between atoms: C1_2  and  O2_3 
REMARK    2  A    between atoms: C1_2  and  C2_4 
REMARK    3  A    between atoms: C2_4  and  C3_5 
REMARK    4  A    between atoms: C3_5  and  C4_6 
REMARK    5  A    between atoms: C5_7  and  C6_8 
REMARK    6  A    between atoms: C6_8  and  C7_9 
REMARK    7  A    between atoms: C7_9  and  O4_11 
REMARK    8  A    between atoms: C20_28  and  C21_29 
REMARK    9  A    between atoms: C21_29  and  C22_30 
REMARK   10  A    between atoms: C22_30  and  O6_32 
REMARK   11  A    between atoms: C23_33  and  C24_34 
REMARK   12  A    between atoms: C24_34  and  C25_35 
REMARK   13  A    between atoms: C25_35  and  C26_36 
REMARK   14  A    between atoms: C26_36  and  O8_38 
REMARK   15  A    between atoms: C27_39  and  C28_40 
REMARK   16  A    between atoms: C28_40  and  C29_41 
REMARK   17  A    between atoms: C29_41  and  O10_43 
REMARK   18  A    between atoms: C30_44  and  C31_45 
REMARK   19  A    between atoms: C31_45  and  C32_46 
REMARK   20  A    between atoms: C32_46  and  C33_47 
REMARK   21  A    between atoms: C33_47  and  O12_49 
REMARK   22  A    between atoms: C34_50  and  C35_51 
REMARK   23  A    between atoms: C35_51  and  C36_52 
REMARK   24  A    between atoms: C36_52  and  O14_54 
REMARK   25  A    between atoms: C37_55  and  C38_56 
REMARK   26  A    between atoms: C38_56  and  C39_57 
REMARK   27  A    between atoms: C39_57  and  C40_58 
REMARK   28  A    between atoms: C40_58  and  O16_60 
ROOT
HETATM    1  O1  UNL     1     -38.576 -16.448   1.084  1.00  0.00    -0.650 OA
HETATM    2  C1  UNL     1     -39.128 -15.538   1.715  1.00  0.00     0.139 C 
ENDROOT
BRANCH   2   3
HETATM    3  O2  UNL     1     -39.256 -14.301   1.079  1.00  0.00    -0.776 OA
HETATM    4  H1  UNL     1     -38.670 -14.025   0.298  1.00  0.00     0.167 HD
ENDBRANCH   2   3
BRANCH   2   5
HETATM    5  C2  UNL     1     -39.647 -15.706   3.087  1.00  0.00     0.115 C 
BRANCH   5   6
HETATM    6  C3  UNL     1     -38.597 -15.831   4.129  1.00  0.00     0.052 C 
BRANCH   6   7
HETATM    7  C4  UNL     1     -37.789 -14.586   4.218  1.00  0.00    -0.020 A 
HETATM    8  C5  UNL     1     -38.111 -13.445   4.832  1.00  0.00    -0.011 A 
HETATM    9  C8  UNL     1     -37.035 -12.496   4.673  1.00  0.00     0.067 A 
HETATM   10  C9  UNL     1     -36.843 -11.159   5.083  1.00  0.00     0.062 C 
HETATM   11  N4  UNL     1     -36.084 -13.095   3.963  1.00  0.00    -0.248 NA
HETATM   12  C10 UNL     1     -35.771 -10.351   4.710  1.00  0.00     0.041 A 
HETATM   13  N1  UNL     1     -35.094 -10.207   3.555  1.00  0.00    -0.355 N 
HETATM   14  C37 UNL     1     -35.193  -9.523   5.700  1.00  0.00    -0.022 A 
HETATM   15  C11 UNL     1     -34.104  -9.323   3.778  1.00  0.00     0.042 A 
HETATM   16  H10 UNL     1     -35.331 -10.703   2.584  1.00  0.00     0.166 HD
HETATM   17  C12 UNL     1     -33.073  -8.823   2.980  1.00  0.00     0.062 C 
HETATM   18  C34 UNL     1     -34.160  -8.886   5.120  1.00  0.00    -0.013 A 
HETATM   19  C13 UNL     1     -32.296  -9.587   2.090  1.00  0.00     0.066 A 
HETATM   20  N2  UNL     1     -32.539 -10.902   1.988  1.00  0.00    -0.248 NA
HETATM   21  C30 UNL     1     -31.223  -9.271   1.179  1.00  0.00    -0.020 A 
HETATM   22  C14 UNL     1     -31.705 -11.445   1.083  1.00  0.00     0.067 A 
HETATM   23  C15 UNL     1     -31.796 -12.817   0.817  1.00  0.00     0.062 C 
HETATM   24  C27 UNL     1     -30.843 -10.395   0.551  1.00  0.00    -0.011 A 
HETATM   25  C16 UNL     1     -32.859 -13.683   1.153  1.00  0.00     0.041 A 
HETATM   26  N3  UNL     1     -33.619 -13.731   2.254  1.00  0.00    -0.355 N 
HETATM   27  C23 UNL     1     -33.282 -14.653   0.210  1.00  0.00    -0.022 A 
HETATM   28  C17 UNL     1     -34.534 -14.692   2.075  1.00  0.00     0.042 A 
HETATM   29  H13 UNL     1     -33.499 -13.103   3.176  1.00  0.00     0.166 HD
HETATM   30  C18 UNL     1     -35.576 -15.144   2.907  1.00  0.00     0.062 C 
HETATM   31  C20 UNL     1     -34.350 -15.285   0.808  1.00  0.00    -0.013 A 
HETATM   32  C19 UNL     1     -36.464 -14.358   3.652  1.00  0.00     0.066 A 
BRANCH   8  33
HETATM   33  C6  UNL     1     -39.390 -13.224   5.563  1.00  0.00     0.151 C 
BRANCH  33  34
HETATM   34  C7  UNL     1     -39.228 -13.239   7.035  1.00  0.00     0.143 C 
HETATM   35  O3  UNL     1     -39.157 -14.331   7.631  1.00  0.00    -0.650 OA
BRANCH  34  36
HETATM   36  O4  UNL     1     -39.160 -12.033   7.698  1.00  0.00    -0.776 OA
HETATM   37  H8  UNL     1     -38.365 -11.421   7.517  1.00  0.00     0.167 HD
ENDBRANCH  34  36
ENDBRANCH  33  34
ENDBRANCH   8  33
BRANCH  31  38
HETATM   38  C21 UNL     1     -35.175 -16.390   0.178  1.00  0.00     0.151 C 
BRANCH  38  39
HETATM   39  C22 UNL     1     -34.780 -17.655   0.840  1.00  0.00     0.143 C 
HETATM   40  O5  UNL     1     -35.661 -18.491   1.134  1.00  0.00    -0.650 OA
BRANCH  39  41
HETATM   41  O6  UNL     1     -33.465 -17.966   1.154  1.00  0.00    -0.776 OA
HETATM   42  H17 UNL     1     -32.811 -18.309   0.439  1.00  0.00     0.167 HD
ENDBRANCH  39  41
ENDBRANCH  38  39
ENDBRANCH  31  38
BRANCH  27  43
HETATM   43  C24 UNL     1     -32.745 -14.972  -1.139  1.00  0.00     0.052 C 
BRANCH  43  44
HETATM   44  C25 UNL     1     -31.756 -16.060  -1.102  1.00  0.00     0.115 C 
BRANCH  44  45
HETATM   45  C26 UNL     1     -31.826 -17.130  -2.093  1.00  0.00     0.139 C 
HETATM   46  O7  UNL     1     -31.394 -18.277  -2.067  1.00  0.00    -0.650 OA
BRANCH  45  47
HETATM   47  O8  UNL     1     -32.513 -16.776  -3.288  1.00  0.00    -0.776 OA
HETATM   48  H22 UNL     1     -32.228 -17.087  -4.184  1.00  0.00     0.167 HD
ENDBRANCH  45  47
ENDBRANCH  44  45
ENDBRANCH  43  44
ENDBRANCH  27  43
BRANCH  24  49
HETATM   49  C28 UNL     1     -29.773 -10.555  -0.483  1.00  0.00     0.151 C 
BRANCH  49  50
HETATM   50  C29 UNL     1     -30.231 -10.051  -1.802  1.00  0.00     0.143 C 
HETATM   51  O9  UNL     1     -31.374 -10.369  -2.201  1.00  0.00    -0.650 OA
BRANCH  50  52
HETATM   52  O10 UNL     1     -29.455  -9.245  -2.615  1.00  0.00    -0.776 OA
HETATM   53  H25 UNL     1     -29.860  -8.458  -3.140  1.00  0.00     0.167 HD
ENDBRANCH  50  52
ENDBRANCH  49  50
ENDBRANCH  24  49
BRANCH  21  54
HETATM   54  C31 UNL     1     -30.624  -7.929   0.933  1.00  0.00     0.052 C 
BRANCH  54  55
HETATM   55  C32 UNL     1     -29.281  -7.729   1.539  1.00  0.00     0.115 C 
BRANCH  55  56
HETATM   56  C33 UNL     1     -28.461  -6.991   0.510  1.00  0.00     0.139 C 
HETATM   57  O11 UNL     1     -28.742  -7.061  -0.712  1.00  0.00    -0.650 OA
BRANCH  56  58
HETATM   58  O12 UNL     1     -27.371  -6.209   0.869  1.00  0.00    -0.776 OA
HETATM   59  H30 UNL     1     -26.904  -5.725   0.097  1.00  0.00     0.167 HD
ENDBRANCH  56  58
ENDBRANCH  55  56
ENDBRANCH  54  55
ENDBRANCH  21  54
BRANCH  18  60
HETATM   60  C35 UNL     1     -33.298  -7.896   5.846  1.00  0.00     0.151 C 
BRANCH  60  61
HETATM   61  C36 UNL     1     -33.959  -6.591   5.765  1.00  0.00     0.143 C 
HETATM   62  O13 UNL     1     -34.827  -6.385   4.871  1.00  0.00    -0.650 OA
BRANCH  61  63
HETATM   63  O14 UNL     1     -33.677  -5.550   6.639  1.00  0.00    -0.776 OA
HETATM   64  H33 UNL     1     -34.030  -5.603   7.580  1.00  0.00     0.167 HD
ENDBRANCH  61  63
ENDBRANCH  60  61
ENDBRANCH  18  60
BRANCH  14  65
HETATM   65  C38 UNL     1     -35.598  -9.312   7.130  1.00  0.00     0.052 C 
BRANCH  65  66
HETATM   66  C39 UNL     1     -36.701  -8.296   7.192  1.00  0.00     0.115 C 
BRANCH  66  67
HETATM   67  C40 UNL     1     -37.699  -8.746   8.233  1.00  0.00     0.139 C 
HETATM   68  O15 UNL     1     -38.830  -9.177   7.886  1.00  0.00    -0.650 OA
BRANCH  67  69
HETATM   69  O16 UNL     1     -37.389  -8.690   9.563  1.00  0.00    -0.776 OA
HETATM   70  H38 UNL     1     -38.093  -8.787  10.276  1.00  0.00     0.167 HD
ENDBRANCH  67  69
ENDBRANCH  66  67
ENDBRANCH  65  66
ENDBRANCH  14  65
ENDBRANCH   6   7
ENDBRANCH   5   6
ENDBRANCH   2   5
TORSDOF 28
ENDMDL
MODEL 7
REMARK VINA RESULT:      -7.4     25.687     30.043
REMARK  28 active torsions:
REMARK  status: ('A' for Active; 'I' for Inactive)
REMARK    1  A    between atoms: C1_2  and  O2_3 
REMARK    2  A    between atoms: C1_2  and  C2_4 
REMARK    3  A    between atoms: C2_4  and  C3_5 
REMARK    4  A    between atoms: C3_5  and  C4_6 
REMARK    5  A    between atoms: C5_7  and  C6_8 
REMARK    6  A    between atoms: C6_8  and  C7_9 
REMARK    7  A    between atoms: C7_9  and  O4_11 
REMARK    8  A    between atoms: C20_28  and  C21_29 
REMARK    9  A    between atoms: C21_29  and  C22_30 
REMARK   10  A    between atoms: C22_30  and  O6_32 
REMARK   11  A    between atoms: C23_33  and  C24_34 
REMARK   12  A    between atoms: C24_34  and  C25_35 
REMARK   13  A    between atoms: C25_35  and  C26_36 
REMARK   14  A    between atoms: C26_36  and  O8_38 
REMARK   15  A    between atoms: C27_39  and  C28_40 
REMARK   16  A    between atoms: C28_40  and  C29_41 
REMARK   17  A    between atoms: C29_41  and  O10_43 
REMARK   18  A    between atoms: C30_44  and  C31_45 
REMARK   19  A    between atoms: C31_45  and  C32_46 
REMARK   20  A    between atoms: C32_46  and  C33_47 
REMARK   21  A    between atoms: C33_47  and  O12_49 
REMARK   22  A    between atoms: C34_50  and  C35_51 
REMARK   23  A    between atoms: C35_51  and  C36_52 
REMARK   24  A    between atoms: C36_52  and  O14_54 
REMARK   25  A    between atoms: C37_55  and  C38_56 
REMARK   26  A    between atoms: C38_56  and  C39_57 
REMARK   27  A    between atoms: C39_57  and  C40_58 
REMARK   28  A    between atoms: C40_58  and  O16_60 
ROOT
HETATM    1  O1  UNL     1       1.114   7.377   9.346  1.00  0.00    -0.650 OA
HETATM    2  C1  UNL     1       1.390   6.201   9.612  1.00  0.00     0.139 C 
ENDROOT
BRANCH   2   3
HETATM    3  O2  UNL     1       2.681   5.760   9.313  1.00  0.00    -0.776 OA
HETATM    4  H1  UNL     1       2.938   4.779   9.320  1.00  0.00     0.167 HD
ENDBRANCH   2   3
BRANCH   2   5
HETATM    5  C2  UNL     1       0.426   5.264  10.222  1.00  0.00     0.115 C 
BRANCH   5   6
HETATM    6  C3  UNL     1       0.268   3.982   9.490  1.00  0.00     0.052 C 
BRANCH   6   7
HETATM    7  C4  UNL     1      -1.151   3.768   9.098  1.00  0.00    -0.020 A 
HETATM    8  C5  UNL     1      -1.998   2.849   9.568  1.00  0.00    -0.011 A 
HETATM    9  C8  UNL     1      -3.276   2.998   8.913  1.00  0.00     0.067 A 
HETATM   10  C9  UNL     1      -4.503   2.305   8.997  1.00  0.00     0.062 C 
HETATM   11  N4  UNL     1      -3.166   4.012   8.061  1.00  0.00    -0.248 NA
HETATM   12  C10 UNL     1      -5.604   2.519   8.170  1.00  0.00     0.041 A 
HETATM   13  N1  UNL     1      -5.721   2.786   6.855  1.00  0.00    -0.355 N 
HETATM   14  C37 UNL     1      -6.886   2.519   8.765  1.00  0.00    -0.022 A 
HETATM   15  C11 UNL     1      -7.030   2.961   6.596  1.00  0.00     0.042 A 
HETATM   16  H10 UNL     1      -4.889   2.821   6.112  1.00  0.00     0.166 HD
HETATM   17  C12 UNL     1      -7.738   3.296   5.440  1.00  0.00     0.062 C 
HETATM   18  C34 UNL     1      -7.769   2.793   7.788  1.00  0.00    -0.013 A 
HETATM   19  C13 UNL     1      -7.342   4.269   4.504  1.00  0.00     0.066 A 
HETATM   20  N2  UNL     1      -6.205   4.946   4.719  1.00  0.00    -0.248 NA
HETATM   21  C30 UNL     1      -7.902   4.744   3.263  1.00  0.00    -0.020 A 
HETATM   22  C14 UNL     1      -6.000   5.814   3.711  1.00  0.00     0.067 A 
HETATM   23  C15 UNL     1      -4.855   6.622   3.736  1.00  0.00     0.062 C 
HETATM   24  C27 UNL     1      -7.097   5.693   2.758  1.00  0.00    -0.011 A 
HETATM   25  C16 UNL     1      -3.706   6.448   4.537  1.00  0.00     0.041 A 
HETATM   26  N3  UNL     1      -3.591   6.051   5.810  1.00  0.00    -0.355 N 
HETATM   27  C23 UNL     1      -2.428   6.662   3.963  1.00  0.00    -0.022 A 
HETATM   28  C17 UNL     1      -2.286   5.988   6.100  1.00  0.00     0.042 A 
HETATM   29  H13 UNL     1      -4.433   5.836   6.521  1.00  0.00     0.166 HD
HETATM   30  C18 UNL     1      -1.618   5.616   7.283  1.00  0.00     0.062 C 
HETATM   31  C20 UNL     1      -1.534   6.362   4.967  1.00  0.00    -0.013 A 
HETATM   32  C19 UNL     1      -1.914   4.529   8.115  1.00  0.00     0.066 A 
BRANCH   8  33
HETATM   33  C6  UNL     1      -1.645   1.845  10.609  1.00  0.00     0.151 C 
BRANCH  33  34
HETATM   34  C7  UNL     1      -1.812   2.356  11.990  1.00  0.00     0.143 C 
HETATM   35  O3  UNL     1      -0.807   2.711  12.635  1.00  0.00    -0.650 OA
BRANCH  34  36
HETATM   36  O4  UNL     1      -3.085   2.422  12.513  1.00  0.00    -0.776 OA
HETATM   37  H8  UNL     1      -3.853   2.018  11.978  1.00  0.00     0.167 HD
ENDBRANCH  34  36
ENDBRANCH  33  34
ENDBRANCH   8  33
BRANCH  31  38
HETATM   38  C21 UNL     1      -0.024   6.406   4.834  1.00  0.00     0.151 C 
BRANCH  38  39
HETATM   39  C22 UNL     1       0.403   7.771   5.219  1.00  0.00     0.143 C 
HETATM   40  O5  UNL     1       0.543   8.639   4.331  1.00  0.00    -0.650 OA
BRANCH  39  41
HETATM   41  O6  UNL     1       0.659   8.143   6.530  1.00  0.00    -0.776 OA
HETATM   42  H17 UNL     1      -0.091   8.486   7.145  1.00  0.00     0.167 HD
ENDBRANCH  39  41
ENDBRANCH  38  39
ENDBRANCH  31  38
BRANCH  27  43
HETATM   43  C24 UNL     1      -2.058   7.108   2.593  1.00  0.00     0.052 C 
BRANCH  43  44
HETATM   44  C25 UNL     1      -1.224   6.120   1.893  1.00  0.00     0.115 C 
BRANCH  44  45
HETATM   45  C26 UNL     1      -1.830   4.884   1.407  1.00  0.00     0.139 C 
HETATM   46  O7  UNL     1      -3.000   4.517   1.386  1.00  0.00    -0.650 OA
BRANCH  45  47
HETATM   47  O8  UNL     1      -0.900   3.949   0.869  1.00  0.00    -0.776 OA
HETATM   48  H22 UNL     1      -1.125   2.997   0.712  1.00  0.00     0.167 HD
ENDBRANCH  45  47
ENDBRANCH  44  45
ENDBRANCH  43  44
ENDBRANCH  27  43
BRANCH  24  49
HETATM   49  C28 UNL     1      -7.268   6.465   1.487  1.00  0.00     0.151 C 
BRANCH  49  50
HETATM   50  C29 UNL     1      -6.701   5.722   0.335  1.00  0.00     0.143 C 
HETATM   51  O9  UNL     1      -7.255   5.832  -0.781  1.00  0.00    -0.650 OA
BRANCH  50  52
HETATM   52  O10 UNL     1      -5.585   4.909   0.433  1.00  0.00    -0.776 OA
HETATM   53  H25 UNL     1      -5.094   4.562  -0.402  1.00  0.00     0.167 HD
ENDBRANCH  50  52
ENDBRANCH  49  50
ENDBRANCH  24  49
BRANCH  21  54
HETATM   54  C31 UNL     1      -9.154   4.269   2.606  1.00  0.00     0.052 C 
BRANCH  54  55
HETATM   55  C32 UNL     1      -9.052   2.927   1.976  1.00  0.00     0.115 C 
BRANCH  55  56
HETATM   56  C33 UNL     1      -9.423   3.114   0.525  1.00  0.00     0.139 C 
HETATM   57  O11 UNL     1      -9.921   4.194   0.119  1.00  0.00    -0.650 OA
BRANCH  56  58
HETATM   58  O12 UNL     1      -9.232   2.109  -0.414  1.00  0.00    -0.776 OA
HETATM   59  H30 UNL     1     -10.083   1.640  -0.736  1.00  0.00     0.167 HD
ENDBRANCH  56  58
ENDBRANCH  55  56
ENDBRANCH  54  55
ENDBRANCH  21  54
BRANCH  18  60
HETATM   60  C35 UNL     1      -9.250   2.864   8.018  1.00  0.00     0.151 C 
BRANCH  60  61
HETATM   61  C36 UNL     1      -9.847   1.663   7.431  1.00  0.00     0.143 C 
HETATM   62  O13 UNL     1     -11.095   1.609   7.249  1.00  0.00    -0.650 OA
BRANCH  61  63
HETATM   63  O14 UNL     1      -9.095   0.558   7.054  1.00  0.00    -0.776 OA
HETATM   64  H33 UNL     1      -8.178   0.442   7.451  1.00  0.00     0.167 HD
ENDBRANCH  61  63
ENDBRANCH  60  61
ENDBRANCH  18  60
BRANCH  14  65
HETATM   65  C38 UNL     1      -7.283   2.253  10.188  1.00  0.00     0.052 C 
BRANCH  65  66
HETATM   66  C39 UNL     1      -7.705   0.820  10.329  1.00  0.00     0.115 C 
BRANCH  66  67
HETATM   67  C40 UNL     1      -7.572   0.430  11.783  1.00  0.00     0.139 C 
HETATM   68  O15 UNL     1      -7.089   1.239  12.617  1.00  0.00    -0.650 OA
BRANCH  67  69
HETATM   69  O16 UNL     1      -7.974  -0.805  12.211  1.00  0.00    -0.776 OA
HETATM   70  H38 UNL     1      -7.313  -1.533  12.423  1.00  0.00     0.167 HD
ENDBRANCH  67  69
ENDBRANCH  66  67
ENDBRANCH  65  66
ENDBRANCH  14  65
ENDBRANCH   6   7
ENDBRANCH   5   6
ENDBRANCH   2   5
TORSDOF 28
ENDMDL
MODEL 8
REMARK VINA RESULT:      -7.2      5.991     12.827
REMARK  28 active torsions:
REMARK  status: ('A' for Active; 'I' for Inactive)
REMARK    1  A    between atoms: C1_2  and  O2_3 
REMARK    2  A    between atoms: C1_2  and  C2_4 
REMARK    3  A    between atoms: C2_4  and  C3_5 
REMARK    4  A    between atoms: C3_5  and  C4_6 
REMARK    5  A    between atoms: C5_7  and  C6_8 
REMARK    6  A    between atoms: C6_8  and  C7_9 
REMARK    7  A    between atoms: C7_9  and  O4_11 
REMARK    8  A    between atoms: C20_28  and  C21_29 
REMARK    9  A    between atoms: C21_29  and  C22_30 
REMARK   10  A    between atoms: C22_30  and  O6_32 
REMARK   11  A    between atoms: C23_33  and  C24_34 
REMARK   12  A    between atoms: C24_34  and  C25_35 
REMARK   13  A    between atoms: C25_35  and  C26_36 
REMARK   14  A    between atoms: C26_36  and  O8_38 
REMARK   15  A    between atoms: C27_39  and  C28_40 
REMARK   16  A    between atoms: C28_40  and  C29_41 
REMARK   17  A    between atoms: C29_41  and  O10_43 
REMARK   18  A    between atoms: C30_44  and  C31_45 
REMARK   19  A    between atoms: C31_45  and  C32_46 
REMARK   20  A    between atoms: C32_46  and  C33_47 
REMARK   21  A    between atoms: C33_47  and  O12_49 
REMARK   22  A    between atoms: C34_50  and  C35_51 
REMARK   23  A    between atoms: C35_51  and  C36_52 
REMARK   24  A    between atoms: C36_52  and  O14_54 
REMARK   25  A    between atoms: C37_55  and  C38_56 
REMARK   26  A    between atoms: C38_56  and  C39_57 
REMARK   27  A    between atoms: C39_57  and  C40_58 
REMARK   28  A    between atoms: C40_58  and  O16_60 
ROOT
HETATM    1  O1  UNL     1     -21.446  12.902 -11.957  1.00  0.00    -0.650 OA
HETATM    2  C1  UNL     1     -20.412  13.577 -11.899  1.00  0.00     0.139 C 
ENDROOT
BRANCH   2   3
HETATM    3  O2  UNL     1     -19.391  13.269 -12.801  1.00  0.00    -0.776 OA
HETATM    4  H1  UNL     1     -19.205  12.321 -13.111  1.00  0.00     0.167 HD
ENDBRANCH   2   3
BRANCH   2   5
HETATM    5  C2  UNL     1     -20.219  14.676 -10.933  1.00  0.00     0.115 C 
BRANCH   5   6
HETATM    6  C3  UNL     1     -19.374  14.325  -9.763  1.00  0.00     0.052 C 
BRANCH   6   7
HETATM    7  C4  UNL     1     -20.192  13.709  -8.685  1.00  0.00    -0.020 A 
HETATM    8  C5  UNL     1     -19.995  12.536  -8.078  1.00  0.00    -0.011 A 
HETATM    9  C8  UNL     1     -21.026  12.330  -7.089  1.00  0.00     0.067 A 
HETATM   10  C9  UNL     1     -21.321  11.283  -6.189  1.00  0.00     0.062 C 
HETATM   11  N4  UNL     1     -21.824  13.392  -7.126  1.00  0.00    -0.248 NA
HETATM   12  C10 UNL     1     -22.461  11.207  -5.392  1.00  0.00     0.041 A 
HETATM   13  N1  UNL     1     -23.751  11.528  -5.610  1.00  0.00    -0.355 N 
HETATM   14  C37 UNL     1     -22.307  10.758  -4.061  1.00  0.00    -0.022 A 
HETATM   15  C11 UNL     1     -24.419  11.304  -4.463  1.00  0.00     0.042 A 
HETATM   16  H10 UNL     1     -24.191  11.881  -6.573  1.00  0.00     0.166 HD
HETATM   17  C12 UNL     1     -25.748  11.492  -4.080  1.00  0.00     0.062 C 
HETATM   18  C34 UNL     1     -23.522  10.818  -3.486  1.00  0.00    -0.013 A 
HETATM   19  C13 UNL     1     -26.534  12.611  -4.411  1.00  0.00     0.066 A 
HETATM   20  N2  UNL     1     -25.985  13.591  -5.143  1.00  0.00    -0.248 NA
HETATM   21  C30 UNL     1     -27.901  12.984  -4.142  1.00  0.00    -0.020 A 
HETATM   22  C14 UNL     1     -26.896  14.557  -5.360  1.00  0.00     0.067 A 
HETATM   23  C15 UNL     1     -26.528  15.678  -6.115  1.00  0.00     0.062 C 
HETATM   24  C27 UNL     1     -28.146  14.175  -4.713  1.00  0.00    -0.011 A 
HETATM   25  C16 UNL     1     -25.398  15.810  -6.951  1.00  0.00     0.041 A 
HETATM   26  N3  UNL     1     -24.145  15.368  -6.787  1.00  0.00    -0.355 N 
HETATM   27  C23 UNL     1     -25.539  16.458  -8.203  1.00  0.00    -0.022 A 
HETATM   28  C17 UNL     1     -23.451  15.694  -7.885  1.00  0.00     0.042 A 
HETATM   29  H13 UNL     1     -23.735  14.844  -5.883  1.00  0.00     0.166 HD
HETATM   30  C18 UNL     1     -22.109  15.456  -8.235  1.00  0.00     0.062 C 
HETATM   31  C20 UNL     1     -24.295  16.374  -8.788  1.00  0.00    -0.013 A 
HETATM   32  C19 UNL     1     -21.387  14.269  -8.063  1.00  0.00     0.066 A 
BRANCH   8  33
HETATM   33  C6  UNL     1     -18.869  11.614  -8.394  1.00  0.00     0.151 C 
BRANCH  33  34
HETATM   34  C7  UNL     1     -18.058  11.259  -7.206  1.00  0.00     0.143 C 
HETATM   35  O3  UNL     1     -17.438  12.155  -6.601  1.00  0.00    -0.650 OA
BRANCH  34  36
HETATM   36  O4  UNL     1     -18.018   9.940  -6.812  1.00  0.00    -0.776 OA
HETATM   37  H8  UNL     1     -18.212   9.717  -5.836  1.00  0.00     0.167 HD
ENDBRANCH  34  36
ENDBRANCH  33  34
ENDBRANCH   8  33
BRANCH  31  38
HETATM   38  C21 UNL     1     -23.940  16.899 -10.165  1.00  0.00     0.151 C 
BRANCH  38  39
HETATM   39  C22 UNL     1     -24.355  15.865 -11.142  1.00  0.00     0.143 C 
HETATM   40  O5  UNL     1     -25.261  16.130 -11.962  1.00  0.00    -0.650 OA
BRANCH  39  41
HETATM   41  O6  UNL     1     -23.786  14.602 -11.196  1.00  0.00    -0.776 OA
HETATM   42  H17 UNL     1     -22.789  14.474 -11.415  1.00  0.00     0.167 HD
ENDBRANCH  39  41
ENDBRANCH  38  39
ENDBRANCH  31  38
BRANCH  27  43
HETATM   43  C24 UNL     1     -26.730  17.105  -8.816  1.00  0.00     0.052 C 
BRANCH  43  44
HETATM   44  C25 UNL     1     -27.011  18.424  -8.230  1.00  0.00     0.115 C 
BRANCH  44  45
HETATM   45  C26 UNL     1     -28.256  18.635  -7.497  1.00  0.00     0.139 C 
HETATM   46  O7  UNL     1     -29.379  18.932  -7.892  1.00  0.00    -0.650 OA
BRANCH  45  47
HETATM   47  O8  UNL     1     -28.142  18.467  -6.089  1.00  0.00    -0.776 OA
HETATM   48  H22 UNL     1     -28.556  17.711  -5.602  1.00  0.00     0.167 HD
ENDBRANCH  45  47
ENDBRANCH  44  45
ENDBRANCH  43  44
ENDBRANCH  27  43
BRANCH  24  49
HETATM   49  C28 UNL     1     -29.424  14.954  -4.706  1.00  0.00     0.151 C 
BRANCH  49  50
HETATM   50  C29 UNL     1     -29.456  15.909  -3.571  1.00  0.00     0.143 C 
HETATM   51  O9  UNL     1     -28.463  16.647  -3.380  1.00  0.00    -0.650 OA
BRANCH  50  52
HETATM   52  O10 UNL     1     -30.531  16.025  -2.708  1.00  0.00    -0.776 OA
HETATM   53  H25 UNL     1     -30.514  15.617  -1.764  1.00  0.00     0.167 HD
ENDBRANCH  50  52
ENDBRANCH  49  50
ENDBRANCH  24  49
BRANCH  21  54
HETATM   54  C31 UNL     1     -28.910  12.196  -3.379  1.00  0.00     0.052 C 
BRANCH  54  55
HETATM   55  C32 UNL     1     -29.569  11.115  -4.159  1.00  0.00     0.115 C 
BRANCH  55  56
HETATM   56  C33 UNL     1     -29.501   9.876  -3.300  1.00  0.00     0.139 C 
HETATM   57  O11 UNL     1     -30.546   9.338  -2.857  1.00  0.00    -0.650 OA
BRANCH  56  58
HETATM   58  O12 UNL     1     -28.290   9.284  -2.967  1.00  0.00    -0.776 OA
HETATM   59  H30 UNL     1     -27.455   9.828  -3.203  1.00  0.00     0.167 HD
ENDBRANCH  56  58
ENDBRANCH  55  56
ENDBRANCH  54  55
ENDBRANCH  21  54
BRANCH  18  60
HETATM   60  C35 UNL     1     -23.778  10.403  -2.067  1.00  0.00     0.151 C 
BRANCH  60  61
HETATM   61  C36 UNL     1     -23.582  11.582  -1.220  1.00  0.00     0.143 C 
HETATM   62  O13 UNL     1     -22.609  11.618  -0.415  1.00  0.00    -0.650 OA
BRANCH  61  63
HETATM   63  O14 UNL     1     -24.426  12.683  -1.257  1.00  0.00    -0.776 OA
HETATM   64  H33 UNL     1     -25.258  12.671  -0.691  1.00  0.00     0.167 HD
ENDBRANCH  61  63
ENDBRANCH  60  61
ENDBRANCH  18  60
BRANCH  14  65
HETATM   65  C38 UNL     1     -21.079  10.268  -3.350  1.00  0.00     0.052 C 
BRANCH  65  66
HETATM   66  C39 UNL     1     -20.396  11.424  -2.680  1.00  0.00     0.115 C 
BRANCH  66  67
HETATM   67  C40 UNL     1     -19.164  11.774  -3.481  1.00  0.00     0.139 C 
HETATM   68  O15 UNL     1     -18.185  10.982  -3.521  1.00  0.00    -0.650 OA
BRANCH  67  69
HETATM   69  O16 UNL     1     -19.094  12.951  -4.172  1.00  0.00    -0.776 OA
HETATM   70  H38 UNL     1     -18.313  13.171  -4.767  1.00  0.00     0.167 HD
ENDBRANCH  67  69
ENDBRANCH  66  67
ENDBRANCH  65  66
ENDBRANCH  14  65
ENDBRANCH   6   7
ENDBRANCH   5   6
ENDBRANCH   2   5
TORSDOF 28
ENDMDL
MODEL 9
REMARK VINA RESULT:      -7.2     16.622     19.807
REMARK  28 active torsions:
REMARK  status: ('A' for Active; 'I' for Inactive)
REMARK    1  A    between atoms: C1_2  and  O2_3 
REMARK    2  A    between atoms: C1_2  and  C2_4 
REMARK    3  A    between atoms: C2_4  and  C3_5 
REMARK    4  A    between atoms: C3_5  and  C4_6 
REMARK    5  A    between atoms: C5_7  and  C6_8 
REMARK    6  A    between atoms: C6_8  and  C7_9 
REMARK    7  A    between atoms: C7_9  and  O4_11 
REMARK    8  A    between atoms: C20_28  and  C21_29 
REMARK    9  A    between atoms: C21_29  and  C22_30 
REMARK   10  A    between atoms: C22_30  and  O6_32 
REMARK   11  A    between atoms: C23_33  and  C24_34 
REMARK   12  A    between atoms: C24_34  and  C25_35 
REMARK   13  A    between atoms: C25_35  and  C26_36 
REMARK   14  A    between atoms: C26_36  and  O8_38 
REMARK   15  A    between atoms: C27_39  and  C28_40 
REMARK   16  A    between atoms: C28_40  and  C29_41 
REMARK   17  A    between atoms: C29_41  and  O10_43 
REMARK   18  A    between atoms: C30_44  and  C31_45 
REMARK   19  A    between atoms: C31_45  and  C32_46 
REMARK   20  A    between atoms: C32_46  and  C33_47 
REMARK   21  A    between atoms: C33_47  and  O12_49 
REMARK   22  A    between atoms: C34_50  and  C35_51 
REMARK   23  A    between atoms: C35_51  and  C36_52 
REMARK   24  A    between atoms: C36_52  and  O14_54 
REMARK   25  A    between atoms: C37_55  and  C38_56 
REMARK   26  A    between atoms: C38_56  and  C39_57 
REMARK   27  A    between atoms: C39_57  and  C40_58 
REMARK   28  A    between atoms: C40_58  and  O16_60 
ROOT
HETATM    1  O1  UNL     1     -19.327  11.781   1.378  1.00  0.00    -0.650 OA
HETATM    2  C1  UNL     1     -19.522  10.564   1.269  1.00  0.00     0.139 C 
ENDROOT
BRANCH   2   3
HETATM    3  O2  UNL     1     -20.263  10.128   0.168  1.00  0.00    -0.776 OA
HETATM    4  H1  UNL     1     -20.209   9.179  -0.185  1.00  0.00     0.167 HD
ENDBRANCH   2   3
BRANCH   2   5
HETATM    5  C2  UNL     1     -19.011   9.575   2.238  1.00  0.00     0.115 C 
BRANCH   5   6
HETATM    6  C3  UNL     1     -18.691   8.249   1.650  1.00  0.00     0.052 C 
BRANCH   6   7
HETATM    7  C4  UNL     1     -17.222   8.020   1.631  1.00  0.00    -0.020 A 
HETATM    8  C5  UNL     1     -16.405   8.042   0.575  1.00  0.00    -0.011 A 
HETATM    9  C8  UNL     1     -15.055   7.770   1.008  1.00  0.00     0.067 A 
HETATM   10  C9  UNL     1     -13.819   7.650   0.336  1.00  0.00     0.062 C 
HETATM   11  N4  UNL     1     -15.094   7.591   2.325  1.00  0.00    -0.248 NA
HETATM   12  C10 UNL     1     -12.623   7.242   0.924  1.00  0.00     0.041 A 
HETATM   13  N1  UNL     1     -12.332   6.311   1.852  1.00  0.00    -0.355 N 
HETATM   14  C37 UNL     1     -11.442   7.927   0.558  1.00  0.00    -0.022 A 
HETATM   15  C11 UNL     1     -11.010   6.386   2.093  1.00  0.00     0.042 A 
HETATM   16  H10 UNL     1     -13.048   5.589   2.311  1.00  0.00     0.166 HD
HETATM   17  C12 UNL     1     -10.161   5.711   2.973  1.00  0.00     0.062 C 
HETATM   18  C34 UNL     1     -10.442   7.395   1.284  1.00  0.00    -0.013 A 
HETATM   19  C13 UNL     1     -10.466   5.398   4.310  1.00  0.00     0.066 A 
HETATM   20  N2  UNL     1     -11.655   5.771   4.804  1.00  0.00    -0.248 NA
HETATM   21  C30 UNL     1      -9.757   4.706   5.358  1.00  0.00    -0.020 A 
HETATM   22  C14 UNL     1     -11.757   5.369   6.084  1.00  0.00     0.067 A 
HETATM   23  C15 UNL     1     -12.933   5.654   6.791  1.00  0.00     0.062 C 
HETATM   24  C27 UNL     1     -10.529   4.677   6.457  1.00  0.00    -0.011 A 
HETATM   25  C16 UNL     1     -14.176   6.054   6.254  1.00  0.00     0.041 A 
HETATM   26  N3  UNL     1     -14.453   6.880   5.238  1.00  0.00    -0.355 N 
HETATM   27  C23 UNL     1     -15.366   5.502   6.788  1.00  0.00    -0.022 A 
HETATM   28  C17 UNL     1     -15.781   6.893   5.074  1.00  0.00     0.042 A 
HETATM   29  H13 UNL     1     -13.712   7.480   4.645  1.00  0.00     0.166 HD
HETATM   30  C18 UNL     1     -16.592   7.575   4.148  1.00  0.00     0.062 C 
HETATM   31  C20 UNL     1     -16.379   6.041   6.026  1.00  0.00    -0.013 A 
HETATM   32  C19 UNL     1     -16.365   7.726   2.774  1.00  0.00     0.066 A 
BRANCH   8  33
HETATM   33  C6  UNL     1     -16.853   8.315  -0.819  1.00  0.00     0.151 C 
BRANCH  33  34
HETATM   34  C7  UNL     1     -17.071   9.756  -1.087  1.00  0.00     0.143 C 
HETATM   35  O3  UNL     1     -16.348  10.599  -0.522  1.00  0.00    -0.650 OA
BRANCH  34  36
HETATM   36  O4  UNL     1     -18.075  10.113  -1.960  1.00  0.00    -0.776 OA
HETATM   37  H8  UNL     1     -18.560   9.377  -2.474  1.00  0.00     0.167 HD
ENDBRANCH  34  36
ENDBRANCH  33  34
ENDBRANCH   8  33
BRANCH  31  38
HETATM   38  C21 UNL     1     -17.854   5.729   6.188  1.00  0.00     0.151 C 
BRANCH  38  39
HETATM   39  C22 UNL     1     -18.118   4.483   5.432  1.00  0.00     0.143 C 
HETATM   40  O5  UNL     1     -18.233   4.536   4.188  1.00  0.00    -0.650 OA
BRANCH  39  41
HETATM   41  O6  UNL     1     -18.243   3.242   6.038  1.00  0.00    -0.776 OA
HETATM   42  H17 UNL     1     -17.976   3.097   7.020  1.00  0.00     0.167 HD
ENDBRANCH  39  41
ENDBRANCH  38  39
ENDBRANCH  31  38
BRANCH  27  43
HETATM   43  C24 UNL     1     -15.557   4.548   7.914  1.00  0.00     0.052 C 
BRANCH  43  44
HETATM   44  C25 UNL     1     -15.886   5.233   9.173  1.00  0.00     0.115 C 
BRANCH  44  45
HETATM   45  C26 UNL     1     -14.874   6.056   9.829  1.00  0.00     0.139 C 
HETATM   46  O7  UNL     1     -14.855   7.257  10.079  1.00  0.00    -0.650 OA
BRANCH  45  47
HETATM   47  O8  UNL     1     -13.717   5.340  10.245  1.00  0.00    -0.776 OA
HETATM   48  H22 UNL     1     -13.688   4.352  10.304  1.00  0.00     0.167 HD
ENDBRANCH  45  47
ENDBRANCH  44  45
ENDBRANCH  43  44
ENDBRANCH  27  43
BRANCH  24  49
HETATM   49  C28 UNL     1     -10.217   4.062   7.786  1.00  0.00     0.151 C 
BRANCH  49  50
HETATM   50  C29 UNL     1     -11.161   2.961   8.095  1.00  0.00     0.143 C 
HETATM   51  O9  UNL     1     -11.114   1.918   7.404  1.00  0.00    -0.650 OA
BRANCH  50  52
HETATM   52  O10 UNL     1     -12.096   3.028   9.113  1.00  0.00    -0.776 OA
HETATM   53  H25 UNL     1     -11.819   3.007  10.103  1.00  0.00     0.167 HD
ENDBRANCH  50  52
ENDBRANCH  49  50
ENDBRANCH  24  49
BRANCH  21  54
HETATM   54  C31 UNL     1      -8.402   4.092   5.268  1.00  0.00     0.052 C 
BRANCH  54  55
HETATM   55  C32 UNL     1      -8.397   2.651   4.906  1.00  0.00     0.115 C 
BRANCH  55  56
HETATM   56  C33 UNL     1      -7.806   1.921   6.087  1.00  0.00     0.139 C 
HETATM   57  O11 UNL     1      -6.645   2.179   6.491  1.00  0.00    -0.650 OA
BRANCH  56  58
HETATM   58  O12 UNL     1      -8.516   0.943   6.772  1.00  0.00    -0.776 OA
HETATM   59  H30 UNL     1      -7.982   0.424   7.474  1.00  0.00     0.167 HD
ENDBRANCH  56  58
ENDBRANCH  55  56
ENDBRANCH  54  55
ENDBRANCH  21  54
BRANCH  18  60
HETATM   60  C35 UNL     1      -9.016   7.845   1.168  1.00  0.00     0.151 C 
BRANCH  60  61
HETATM   61  C36 UNL     1      -8.321   6.892   0.299  1.00  0.00     0.143 C 
HETATM   62  O13 UNL     1      -7.545   6.034   0.806  1.00  0.00    -0.650 OA
BRANCH  61  63
HETATM   63  O14 UNL     1      -8.476   6.881  -1.081  1.00  0.00    -0.776 OA
HETATM   64  H33 UNL     1      -9.378   6.648  -1.461  1.00  0.00     0.167 HD
ENDBRANCH  61  63
ENDBRANCH  60  61
ENDBRANCH  18  60
BRANCH  14  65
HETATM   65  C38 UNL     1     -11.241   9.025  -0.446  1.00  0.00     0.052 C 
BRANCH  65  66
HETATM   66  C39 UNL     1     -11.406   8.471  -1.831  1.00  0.00     0.115 C 
BRANCH  66  67
HETATM   67  C40 UNL     1     -10.438   9.186  -2.744  1.00  0.00     0.139 C 
HETATM   68  O15 UNL     1     -10.820   9.621  -3.861  1.00  0.00    -0.650 OA
BRANCH  67  69
HETATM   69  O16 UNL     1      -9.135   9.370  -2.370  1.00  0.00    -0.776 OA
HETATM   70  H38 UNL     1      -8.698   8.792  -1.672  1.00  0.00     0.167 HD
ENDBRANCH  67  69
ENDBRANCH  66  67
ENDBRANCH  65  66
ENDBRANCH  14  65
ENDBRANCH   6   7
ENDBRANCH   5   6
ENDBRANCH   2   5
TORSDOF 28
ENDMDL
MODEL 10
REMARK VINA RESULT:      -7.2     17.389     21.001
REMARK  28 active torsions:
REMARK  status: ('A' for Active; 'I' for Inactive)
REMARK    1  A    between atoms: C1_2  and  O2_3 
REMARK    2  A    between atoms: C1_2  and  C2_4 
REMARK    3  A    between atoms: C2_4  and  C3_5 
REMARK    4  A    between atoms: C3_5  and  C4_6 
REMARK    5  A    between atoms: C5_7  and  C6_8 
REMARK    6  A    between atoms: C6_8  and  C7_9 
REMARK    7  A    between atoms: C7_9  and  O4_11 
REMARK    8  A    between atoms: C20_28  and  C21_29 
REMARK    9  A    between atoms: C21_29  and  C22_30 
REMARK   10  A    between atoms: C22_30  and  O6_32 
REMARK   11  A    between atoms: C23_33  and  C24_34 
REMARK   12  A    between atoms: C24_34  and  C25_35 
REMARK   13  A    between atoms: C25_35  and  C26_36 
REMARK   14  A    between atoms: C26_36  and  O8_38 
REMARK   15  A    between atoms: C27_39  and  C28_40 
REMARK   16  A    between atoms: C28_40  and  C29_41 
REMARK   17  A    between atoms: C29_41  and  O10_43 
REMARK   18  A    between atoms: C30_44  and  C31_45 
REMARK   19  A    between atoms: C31_45  and  C32_46 
REMARK   20  A    between atoms: C32_46  and  C33_47 
REMARK   21  A    between atoms: C33_47  and  O12_49 
REMARK   22  A    between atoms: C34_50  and  C35_51 
REMARK   23  A    between atoms: C35_51  and  C36_52 
REMARK   24  A    between atoms: C36_52  and  O14_54 
REMARK   25  A    between atoms: C37_55  and  C38_56 
REMARK   26  A    between atoms: C38_56  and  C39_57 
REMARK   27  A    between atoms: C39_57  and  C40_58 
REMARK   28  A    between atoms: C40_58  and  O16_60 
ROOT
HETATM    1  O1  UNL     1     -18.285   2.147   7.820  1.00  0.00    -0.650 OA
HETATM    2  C1  UNL     1     -18.429   3.147   8.534  1.00  0.00     0.139 C 
ENDROOT
BRANCH   2   3
HETATM    3  O2  UNL     1     -18.469   2.949   9.916  1.00  0.00    -0.776 OA
HETATM    4  H1  UNL     1     -18.562   2.030  10.333  1.00  0.00     0.167 HD
ENDBRANCH   2   3
BRANCH   2   5
HETATM    5  C2  UNL     1     -18.556   4.514   7.992  1.00  0.00     0.115 C 
BRANCH   5   6
HETATM    6  C3  UNL     1     -17.590   5.490   8.557  1.00  0.00     0.052 C 
BRANCH   6   7
HETATM    7  C4  UNL     1     -16.235   5.290   7.977  1.00  0.00    -0.020 A 
HETATM    8  C5  UNL     1     -15.119   4.925   8.614  1.00  0.00    -0.011 A 
HETATM    9  C8  UNL     1     -14.032   4.848   7.668  1.00  0.00     0.067 A 
HETATM   10  C9  UNL     1     -12.659   4.540   7.781  1.00  0.00     0.062 C 
HETATM   11  N4  UNL     1     -14.525   5.170   6.476  1.00  0.00    -0.248 NA
HETATM   12  C10 UNL     1     -11.724   4.652   6.753  1.00  0.00     0.041 A 
HETATM   13  N1  UNL     1     -11.551   5.555   5.770  1.00  0.00    -0.355 N 
HETATM   14  C37 UNL     1     -10.761   3.625   6.623  1.00  0.00    -0.022 A 
HETATM   15  C11 UNL     1     -10.518   5.135   5.017  1.00  0.00     0.042 A 
HETATM   16  H10 UNL     1     -12.135   6.496   5.626  1.00  0.00     0.166 HD
HETATM   17  C12 UNL     1      -9.918   5.631   3.857  1.00  0.00     0.062 C 
HETATM   18  C34 UNL     1     -10.014   3.926   5.546  1.00  0.00    -0.013 A 
HETATM   19  C13 UNL     1     -10.611   6.159   2.752  1.00  0.00     0.066 A 
HETATM   20  N2  UNL     1     -11.951   6.193   2.787  1.00  0.00    -0.248 NA
HETATM   21  C30 UNL     1     -10.194   6.729   1.495  1.00  0.00    -0.020 A 
HETATM   22  C14 UNL     1     -12.417   6.741   1.650  1.00  0.00     0.067 A 
HETATM   23  C15 UNL     1     -13.801   6.878   1.483  1.00  0.00     0.062 C 
HETATM   24  C27 UNL     1     -11.285   7.093   0.801  1.00  0.00    -0.011 A 
HETATM   25  C16 UNL     1     -14.794   6.792   2.484  1.00  0.00     0.041 A 
HETATM   26  N3  UNL     1     -14.888   5.975   3.539  1.00  0.00    -0.355 N 
HETATM   27  C23 UNL     1     -15.871   7.713   2.465  1.00  0.00    -0.022 A 
HETATM   28  C17 UNL     1     -15.984   6.322   4.226  1.00  0.00     0.042 A 
HETATM   29  H13 UNL     1     -14.194   5.130   3.793  1.00  0.00     0.166 HD
HETATM   30  C18 UNL     1     -16.534   5.803   5.413  1.00  0.00     0.062 C 
HETATM   31  C20 UNL     1     -16.618   7.405   3.582  1.00  0.00    -0.013 A 
HETATM   32  C19 UNL     1     -15.847   5.449   6.580  1.00  0.00     0.066 A 
BRANCH   8  33
HETATM   33  C6  UNL     1     -15.048   4.643  10.074  1.00  0.00     0.151 C 
BRANCH  33  34
HETATM   34  C7  UNL     1     -14.408   5.733  10.846  1.00  0.00     0.143 C 
HETATM   35  O3  UNL     1     -14.638   6.918  10.536  1.00  0.00    -0.650 OA
BRANCH  34  36
HETATM   36  O4  UNL     1     -13.574   5.393  11.888  1.00  0.00    -0.776 OA
HETATM   37  H8  UNL     1     -13.991   5.083  12.765  1.00  0.00     0.167 HD
ENDBRANCH  34  36
ENDBRANCH  33  34
ENDBRANCH   8  33
BRANCH  31  38
HETATM   38  C21 UNL     1     -17.869   8.137   4.024  1.00  0.00     0.151 C 
BRANCH  38  39
HETATM   39  C22 UNL     1     -19.025   7.358   3.522  1.00  0.00     0.143 C 
HETATM   40  O5  UNL     1     -19.605   6.563   4.293  1.00  0.00    -0.650 OA
BRANCH  39  41
HETATM   41  O6  UNL     1     -19.506   7.467   2.227  1.00  0.00    -0.776 OA
HETATM   42  H17 UNL     1     -19.825   8.368   1.848  1.00  0.00     0.167 HD
ENDBRANCH  39  41
ENDBRANCH  38  39
ENDBRANCH  31  38
BRANCH  27  43
HETATM   43  C24 UNL     1     -16.188   8.796   1.496  1.00  0.00     0.052 C 
BRANCH  43  44
HETATM   44  C25 UNL     1     -16.920   8.296   0.324  1.00  0.00     0.115 C 
BRANCH  44  45
HETATM   45  C26 UNL     1     -17.794   9.201  -0.418  1.00  0.00     0.139 C 
HETATM   46  O7  UNL     1     -17.549   9.987  -1.327  1.00  0.00    -0.650 OA
BRANCH  45  47
HETATM   47  O8  UNL     1     -19.157   9.162  -0.012  1.00  0.00    -0.776 OA
HETATM   48  H22 UNL     1     -19.897   8.947  -0.634  1.00  0.00     0.167 HD
ENDBRANCH  45  47
ENDBRANCH  44  45
ENDBRANCH  43  44
ENDBRANCH  27  43
BRANCH  24  49
HETATM   49  C28 UNL     1     -11.345   7.731  -0.552  1.00  0.00     0.151 C 
BRANCH  49  50
HETATM   50  C29 UNL     1     -11.226   9.206  -0.447  1.00  0.00     0.143 C 
HETATM   51  O9  UNL     1     -10.274   9.774  -1.029  1.00  0.00    -0.650 OA
BRANCH  50  52
HETATM   52  O10 UNL     1     -12.116   9.990   0.264  1.00  0.00    -0.776 OA
HETATM   53  H25 UNL     1     -12.105  11.016   0.200  1.00  0.00     0.167 HD
ENDBRANCH  50  52
ENDBRANCH  49  50
ENDBRANCH  24  49
BRANCH  21  54
HETATM   54  C31 UNL     1      -8.794   6.920   1.018  1.00  0.00     0.052 C 
BRANCH  54  55
HETATM   55  C32 UNL     1      -8.477   6.232  -0.261  1.00  0.00     0.115 C 
BRANCH  55  56
HETATM   56  C33 UNL     1      -7.701   4.992   0.109  1.00  0.00     0.139 C 
HETATM   57  O11 UNL     1      -6.461   4.924  -0.079  1.00  0.00    -0.650 OA
BRANCH  56  58
HETATM   58  O12 UNL     1      -8.321   3.882   0.669  1.00  0.00    -0.776 OA
HETATM   59  H30 UNL     1      -7.903   2.979   0.431  1.00  0.00     0.167 HD
ENDBRANCH  56  58
ENDBRANCH  55  56
ENDBRANCH  54  55
ENDBRANCH  21  54
BRANCH  18  60
HETATM   60  C35 UNL     1      -8.864   3.081   5.085  1.00  0.00     0.151 C 
BRANCH  60  61
HETATM   61  C36 UNL     1      -9.393   2.090   4.144  1.00  0.00     0.143 C 
HETATM   62  O13 UNL     1      -9.411   2.348   2.908  1.00  0.00    -0.650 OA
BRANCH  61  63
HETATM   63  O14 UNL     1      -9.884   0.856   4.549  1.00  0.00    -0.776 OA
HETATM   64  H33 UNL     1     -10.694   0.834   5.146  1.00  0.00     0.167 HD
ENDBRANCH  61  63
ENDBRANCH  60  61
ENDBRANCH  18  60
BRANCH  14  65
HETATM   65  C38 UNL     1     -10.527   2.415   7.480  1.00  0.00     0.052 C 
BRANCH  65  66
HETATM   66  C39 UNL     1      -9.962   2.842   8.803  1.00  0.00     0.115 C 
BRANCH  66  67
HETATM   67  C40 UNL     1      -8.455   2.778   8.715  1.00  0.00     0.139 C 
HETATM   68  O15 UNL     1      -7.751   3.726   9.152  1.00  0.00    -0.650 OA
BRANCH  67  69
HETATM   69  O16 UNL     1      -7.836   1.693   8.160  1.00  0.00    -0.776 OA
HETATM   70  H38 UNL     1      -6.849   1.690   7.960  1.00  0.00     0.167 HD
ENDBRANCH  67  69
ENDBRANCH  66  67
ENDBRANCH  65  66
ENDBRANCH  14  65
ENDBRANCH   6   7
ENDBRANCH   5   6
ENDBRANCH   2   5
TORSDOF 28
ENDMDL
MODEL 11
REMARK VINA RESULT:      -7.1     16.874     20.196
REMARK  28 active torsions:
REMARK  status: ('A' for Active; 'I' for Inactive)
REMARK    1  A    between atoms: C1_2  and  O2_3 
REMARK    2  A    between atoms: C1_2  and  C2_4 
REMARK    3  A    between atoms: C2_4  and  C3_5 
REMARK    4  A    between atoms: C3_5  and  C4_6 
REMARK    5  A    between atoms: C5_7  and  C6_8 
REMARK    6  A    between atoms: C6_8  and  C7_9 
REMARK    7  A    between atoms: C7_9  and  O4_11 
REMARK    8  A    between atoms: C20_28  and  C21_29 
REMARK    9  A    between atoms: C21_29  and  C22_30 
REMARK   10  A    between atoms: C22_30  and  O6_32 
REMARK   11  A    between atoms: C23_33  and  C24_34 
REMARK   12  A    between atoms: C24_34  and  C25_35 
REMARK   13  A    between atoms: C25_35  and  C26_36 
REMARK   14  A    between atoms: C26_36  and  O8_38 
REMARK   15  A    between atoms: C27_39  and  C28_40 
REMARK   16  A    between atoms: C28_40  and  C29_41 
REMARK   17  A    between atoms: C29_41  and  O10_43 
REMARK   18  A    between atoms: C30_44  and  C31_45 
REMARK   19  A    between atoms: C31_45  and  C32_46 
REMARK   20  A    between atoms: C32_46  and  C33_47 
REMARK   21  A    between atoms: C33_47  and  O12_49 
REMARK   22  A    between atoms: C34_50  and  C35_51 
REMARK   23  A    between atoms: C35_51  and  C36_52 
REMARK   24  A    between atoms: C36_52  and  O14_54 
REMARK   25  A    between atoms: C37_55  and  C38_56 
REMARK   26  A    between atoms: C38_56  and  C39_57 
REMARK   27  A    between atoms: C39_57  and  C40_58 
REMARK   28  A    between atoms: C40_58  and  O16_60 
ROOT
HETATM    1  O1  UNL     1     -16.051   5.244  11.242  1.00  0.00    -0.650 OA
HETATM    2  C1  UNL     1     -16.938   5.913  10.699  1.00  0.00     0.139 C 
ENDROOT
BRANCH   2   3
HETATM    3  O2  UNL     1     -16.883   7.300  10.854  1.00  0.00    -0.776 OA
HETATM    4  H1  UNL     1     -17.110   7.761  11.729  1.00  0.00     0.167 HD
ENDBRANCH   2   3
BRANCH   2   5
HETATM    5  C2  UNL     1     -18.032   5.315   9.909  1.00  0.00     0.115 C 
BRANCH   5   6
HETATM    6  C3  UNL     1     -17.605   4.220   9.001  1.00  0.00     0.052 C 
BRANCH   6   7
HETATM    7  C4  UNL     1     -17.203   4.759   7.674  1.00  0.00    -0.020 A 
HETATM    8  C5  UNL     1     -17.976   4.946   6.601  1.00  0.00    -0.011 A 
HETATM    9  C8  UNL     1     -17.179   5.492   5.528  1.00  0.00     0.067 A 
HETATM   10  C9  UNL     1     -17.457   5.857   4.193  1.00  0.00     0.062 C 
HETATM   11  N4  UNL     1     -15.938   5.623   5.987  1.00  0.00    -0.248 NA
HETATM   12  C10 UNL     1     -16.506   6.248   3.253  1.00  0.00     0.041 A 
HETATM   13  N1  UNL     1     -15.254   5.828   2.991  1.00  0.00    -0.355 N 
HETATM   14  C37 UNL     1     -16.827   7.329   2.399  1.00  0.00    -0.022 A 
HETATM   15  C11 UNL     1     -14.768   6.606   2.006  1.00  0.00     0.042 A 
HETATM   16  H10 UNL     1     -14.729   4.970   3.476  1.00  0.00     0.166 HD
HETATM   17  C12 UNL     1     -13.531   6.667   1.361  1.00  0.00     0.062 C 
HETATM   18  C34 UNL     1     -15.748   7.549   1.627  1.00  0.00    -0.013 A 
HETATM   19  C13 UNL     1     -12.281   6.556   1.998  1.00  0.00     0.066 A 
HETATM   20  N2  UNL     1     -12.247   6.386   3.327  1.00  0.00    -0.248 NA
HETATM   21  C30 UNL     1     -10.918   6.571   1.527  1.00  0.00    -0.020 A 
HETATM   22  C14 UNL     1     -10.969   6.291   3.737  1.00  0.00     0.067 A 
HETATM   23  C15 UNL     1     -10.708   6.101   5.100  1.00  0.00     0.062 C 
HETATM   24  C27 UNL     1     -10.095   6.411   2.576  1.00  0.00    -0.011 A 
HETATM   25  C16 UNL     1     -11.622   5.691   6.095  1.00  0.00     0.041 A 
HETATM   26  N3  UNL     1     -12.910   6.012   6.271  1.00  0.00    -0.355 N 
HETATM   27  C23 UNL     1     -11.202   4.756   7.073  1.00  0.00    -0.022 A 
HETATM   28  C17 UNL     1     -13.361   5.321   7.324  1.00  0.00     0.042 A 
HETATM   29  H13 UNL     1     -13.502   6.749   5.666  1.00  0.00     0.166 HD
HETATM   30  C18 UNL     1     -14.635   5.275   7.923  1.00  0.00     0.062 C 
HETATM   31  C20 UNL     1     -12.319   4.527   7.846  1.00  0.00    -0.013 A 
HETATM   32  C19 UNL     1     -15.873   5.202   7.274  1.00  0.00     0.066 A 
BRANCH   8  33
HETATM   33  C6  UNL     1     -19.431   4.633   6.557  1.00  0.00     0.151 C 
BRANCH  33  34
HETATM   34  C7  UNL     1     -19.711   3.181   6.470  1.00  0.00     0.143 C 
HETATM   35  O3  UNL     1     -18.789   2.398   6.168  1.00  0.00    -0.650 OA
BRANCH  34  36
HETATM   36  O4  UNL     1     -20.992   2.746   6.730  1.00  0.00    -0.776 OA
HETATM   37  H8  UNL     1     -21.554   3.261   7.407  1.00  0.00     0.167 HD
ENDBRANCH  34  36
ENDBRANCH  33  34
ENDBRANCH   8  33
BRANCH  31  38
HETATM   38  C21 UNL     1     -12.389   3.565   9.016  1.00  0.00     0.151 C 
BRANCH  38  39
HETATM   39  C22 UNL     1     -12.114   4.354  10.240  1.00  0.00     0.143 C 
HETATM   40  O5  UNL     1     -10.929   4.565  10.577  1.00  0.00    -0.650 OA
BRANCH  39  41
HETATM   41  O6  UNL     1     -13.115   4.880  11.042  1.00  0.00    -0.776 OA
HETATM   42  H17 UNL     1     -14.018   5.173  10.648  1.00  0.00     0.167 HD
ENDBRANCH  39  41
ENDBRANCH  38  39
ENDBRANCH  31  38
BRANCH  27  43
HETATM   43  C24 UNL     1      -9.873   4.120   7.280  1.00  0.00     0.052 C 
BRANCH  43  44
HETATM   44  C25 UNL     1      -9.769   2.818   6.607  1.00  0.00     0.115 C 
BRANCH  44  45
HETATM   45  C26 UNL     1      -9.331   1.650   7.366  1.00  0.00     0.139 C 
HETATM   46  O7  UNL     1      -9.100   1.511   8.563  1.00  0.00    -0.650 OA
BRANCH  45  47
HETATM   47  O8  UNL     1      -9.141   0.479   6.580  1.00  0.00    -0.776 OA
HETATM   48  H22 UNL     1      -9.825   0.135   5.952  1.00  0.00     0.167 HD
ENDBRANCH  45  47
ENDBRANCH  44  45
ENDBRANCH  43  44
ENDBRANCH  27  43
BRANCH  24  49
HETATM   49  C28 UNL     1      -8.599   6.356   2.573  1.00  0.00     0.151 C 
BRANCH  49  50
HETATM   50  C29 UNL     1      -8.120   4.954   2.655  1.00  0.00     0.143 C 
HETATM   51  O9  UNL     1      -7.409   4.619   3.629  1.00  0.00    -0.650 OA
BRANCH  50  52
HETATM   52  O10 UNL     1      -8.421   3.994   1.706  1.00  0.00    -0.776 OA
HETATM   53  H25 UNL     1      -8.426   2.991   1.934  1.00  0.00     0.167 HD
ENDBRANCH  50  52
ENDBRANCH  49  50
ENDBRANCH  24  49
BRANCH  21  54
HETATM   54  C31 UNL     1     -10.460   6.716   0.116  1.00  0.00     0.052 C 
BRANCH  54  55
HETATM   55  C32 UNL     1     -10.102   8.104  -0.279  1.00  0.00     0.115 C 
BRANCH  55  56
HETATM   56  C33 UNL     1     -11.366   8.728  -0.817  1.00  0.00     0.139 C 
HETATM   57  O11 UNL     1     -11.826   8.394  -1.937  1.00  0.00    -0.650 OA
BRANCH  56  58
HETATM   58  O12 UNL     1     -12.068   9.689  -0.101  1.00  0.00    -0.776 OA
HETATM   59  H30 UNL     1     -12.648  10.318  -0.663  1.00  0.00     0.167 HD
ENDBRANCH  56  58
ENDBRANCH  55  56
ENDBRANCH  54  55
ENDBRANCH  21  54
BRANCH  18  60
HETATM   60  C35 UNL     1     -15.702   8.612   0.569  1.00  0.00     0.151 C 
BRANCH  60  61
HETATM   61  C36 UNL     1     -15.272   9.856   1.212  1.00  0.00     0.143 C 
HETATM   62  O13 UNL     1     -14.299   9.841   2.016  1.00  0.00    -0.650 OA
BRANCH  61  63
HETATM   63  O14 UNL     1     -15.892  11.076   0.976  1.00  0.00    -0.776 OA
HETATM   64  H33 UNL     1     -15.957  11.736   1.733  1.00  0.00     0.167 HD
ENDBRANCH  61  63
ENDBRANCH  60  61
ENDBRANCH  18  60
BRANCH  14  65
HETATM   65  C38 UNL     1     -18.099   8.118   2.288  1.00  0.00     0.052 C 
BRANCH  65  66
HETATM   66  C39 UNL     1     -18.135   9.161   3.367  1.00  0.00     0.115 C 
BRANCH  66  67
HETATM   67  C40 UNL     1     -18.769  10.408   2.796  1.00  0.00     0.139 C 
HETATM   68  O15 UNL     1     -19.291  11.262   3.559  1.00  0.00    -0.650 OA
BRANCH  67  69
HETATM   69  O16 UNL     1     -18.784  10.626   1.447  1.00  0.00    -0.776 OA
HETATM   70  H38 UNL     1     -19.388  11.312   1.028  1.00  0.00     0.167 HD
ENDBRANCH  67  69
ENDBRANCH  66  67
ENDBRANCH  65  66
ENDBRANCH  14  65
ENDBRANCH   6   7
ENDBRANCH   5   6
ENDBRANCH   2   5
TORSDOF 28
ENDMDL
MODEL 12
REMARK VINA RESULT:      -7.1     17.486     21.777
REMARK  28 active torsions:
REMARK  status: ('A' for Active; 'I' for Inactive)
REMARK    1  A    between atoms: C1_2  and  O2_3 
REMARK    2  A    between atoms: C1_2  and  C2_4 
REMARK    3  A    between atoms: C2_4  and  C3_5 
REMARK    4  A    between atoms: C3_5  and  C4_6 
REMARK    5  A    between atoms: C5_7  and  C6_8 
REMARK    6  A    between atoms: C6_8  and  C7_9 
REMARK    7  A    between atoms: C7_9  and  O4_11 
REMARK    8  A    between atoms: C20_28  and  C21_29 
REMARK    9  A    between atoms: C21_29  and  C22_30 
REMARK   10  A    between atoms: C22_30  and  O6_32 
REMARK   11  A    between atoms: C23_33  and  C24_34 
REMARK   12  A    between atoms: C24_34  and  C25_35 
REMARK   13  A    between atoms: C25_35  and  C26_36 
REMARK   14  A    between atoms: C26_36  and  O8_38 
REMARK   15  A    between atoms: C27_39  and  C28_40 
REMARK   16  A    between atoms: C28_40  and  C29_41 
REMARK   17  A    between atoms: C29_41  and  O10_43 
REMARK   18  A    between atoms: C30_44  and  C31_45 
REMARK   19  A    between atoms: C31_45  and  C32_46 
REMARK   20  A    between atoms: C32_46  and  C33_47 
REMARK   21  A    between atoms: C33_47  and  O12_49 
REMARK   22  A    between atoms: C34_50  and  C35_51 
REMARK   23  A    between atoms: C35_51  and  C36_52 
REMARK   24  A    between atoms: C36_52  and  O14_54 
REMARK   25  A    between atoms: C37_55  and  C38_56 
REMARK   26  A    between atoms: C38_56  and  C39_57 
REMARK   27  A    between atoms: C39_57  and  C40_58 
REMARK   28  A    between atoms: C40_58  and  O16_60 
ROOT
HETATM    1  O1  UNL     1     -16.762  11.952  -0.659  1.00  0.00    -0.650 OA
HETATM    2  C1  UNL     1     -17.032  10.838  -0.194  1.00  0.00     0.139 C 
ENDROOT
BRANCH   2   3
HETATM    3  O2  UNL     1     -18.350  10.613   0.211  1.00  0.00    -0.776 OA
HETATM    4  H1  UNL     1     -18.685   9.698   0.494  1.00  0.00     0.167 HD
ENDBRANCH   2   3
BRANCH   2   5
HETATM    5  C2  UNL     1     -16.035   9.758  -0.055  1.00  0.00     0.115 C 
BRANCH   5   6
HETATM    6  C3  UNL     1     -16.618   8.408   0.157  1.00  0.00     0.052 C 
BRANCH   6   7
HETATM    7  C4  UNL     1     -16.127   7.815   1.430  1.00  0.00    -0.020 A 
HETATM    8  C5  UNL     1     -16.748   7.789   2.612  1.00  0.00    -0.011 A 
HETATM    9  C8  UNL     1     -15.914   7.111   3.575  1.00  0.00     0.067 A 
HETATM   10  C9  UNL     1     -16.050   6.818   4.950  1.00  0.00     0.062 C 
HETATM   11  N4  UNL     1     -14.804   6.741   2.944  1.00  0.00    -0.248 NA
HETATM   12  C10 UNL     1     -15.056   6.261   5.753  1.00  0.00     0.041 A 
HETATM   13  N1  UNL     1     -13.723   6.438   5.812  1.00  0.00    -0.355 N 
HETATM   14  C37 UNL     1     -15.440   5.270   6.686  1.00  0.00    -0.022 A 
HETATM   15  C11 UNL     1     -13.247   5.590   6.743  1.00  0.00     0.042 A 
HETATM   16  H10 UNL     1     -13.127   7.174   5.222  1.00  0.00     0.166 HD
HETATM   17  C12 UNL     1     -11.960   5.300   7.200  1.00  0.00     0.062 C 
HETATM   18  C34 UNL     1     -14.317   4.855   7.298  1.00  0.00    -0.013 A 
HETATM   19  C13 UNL     1     -10.823   5.164   6.382  1.00  0.00     0.066 A 
HETATM   20  N2  UNL     1     -10.961   5.312   5.056  1.00  0.00    -0.248 NA
HETATM   21  C30 UNL     1      -9.431   4.893   6.647  1.00  0.00    -0.020 A 
HETATM   22  C14 UNL     1      -9.765   5.158   4.459  1.00  0.00     0.067 A 
HETATM   23  C15 UNL     1      -9.684   5.281   3.066  1.00  0.00     0.062 C 
HETATM   24  C27 UNL     1      -8.762   4.883   5.482  1.00  0.00    -0.011 A 
HETATM   25  C16 UNL     1     -10.646   5.848   2.202  1.00  0.00     0.041 A 
HETATM   26  N3  UNL     1     -11.982   5.778   2.231  1.00  0.00    -0.355 N 
HETATM   27  C23 UNL     1     -10.211   6.677   1.138  1.00  0.00    -0.022 A 
HETATM   28  C17 UNL     1     -12.451   6.533   1.230  1.00  0.00     0.042 A 
HETATM   29  H13 UNL     1     -12.603   5.173   2.944  1.00  0.00     0.166 HD
HETATM   30  C18 UNL     1     -13.769   6.816   0.824  1.00  0.00     0.062 C 
HETATM   31  C20 UNL     1     -11.370   7.108   0.530  1.00  0.00    -0.013 A 
HETATM   32  C19 UNL     1     -14.858   7.130   1.646  1.00  0.00     0.066 A 
BRANCH   8  33
HETATM   33  C6  UNL     1     -18.095   8.375   2.859  1.00  0.00     0.151 C 
BRANCH  33  34
HETATM   34  C7  UNL     1     -19.184   7.372   2.802  1.00  0.00     0.143 C 
HETATM   35  O3  UNL     1     -19.676   6.945   3.865  1.00  0.00    -0.650 OA
BRANCH  34  36
HETATM   36  O4  UNL     1     -19.616   6.944   1.566  1.00  0.00    -0.776 OA
HETATM   37  H8  UNL     1     -20.580   7.134   1.295  1.00  0.00     0.167 HD
ENDBRANCH  34  36
ENDBRANCH  33  34
ENDBRANCH   8  33
BRANCH  31  38
HETATM   38  C21 UNL     1     -11.436   8.054  -0.653  1.00  0.00     0.151 C 
BRANCH  38  39
HETATM   39  C22 UNL     1     -11.382   9.431  -0.109  1.00  0.00     0.143 C 
HETATM   40  O5  UNL     1     -10.372  10.134  -0.327  1.00  0.00    -0.650 OA
BRANCH  39  41
HETATM   41  O6  UNL     1     -12.407   9.990   0.640  1.00  0.00    -0.776 OA
HETATM   42  H17 UNL     1     -12.305  10.152   1.650  1.00  0.00     0.167 HD
ENDBRANCH  39  41
ENDBRANCH  38  39
ENDBRANCH  31  38
BRANCH  27  43
HETATM   43  C24 UNL     1      -8.834   7.045   0.713  1.00  0.00     0.052 C 
BRANCH  43  44
HETATM   44  C25 UNL     1      -8.384   6.268  -0.451  1.00  0.00     0.115 C 
BRANCH  44  45
HETATM   45  C26 UNL     1      -7.637   5.031  -0.243  1.00  0.00     0.139 C 
HETATM   46  O7  UNL     1      -6.431   4.827  -0.156  1.00  0.00    -0.650 OA
BRANCH  45  47
HETATM   47  O8  UNL     1      -8.450   3.869  -0.124  1.00  0.00    -0.776 OA
HETATM   48  H22 UNL     1      -8.246   3.019  -0.590  1.00  0.00     0.167 HD
ENDBRANCH  45  47
ENDBRANCH  44  45
ENDBRANCH  43  44
ENDBRANCH  27  43
BRANCH  24  49
HETATM   49  C28 UNL     1      -7.300   4.652   5.262  1.00  0.00     0.151 C 
BRANCH  49  50
HETATM   50  C29 UNL     1      -6.925   3.260   5.614  1.00  0.00     0.143 C 
HETATM   51  O9  UNL     1      -5.869   3.068   6.259  1.00  0.00    -0.650 OA
BRANCH  50  52
HETATM   52  O10 UNL     1      -7.687   2.159   5.266  1.00  0.00    -0.776 OA
HETATM   53  H25 UNL     1      -7.931   1.432   5.951  1.00  0.00     0.167 HD
ENDBRANCH  50  52
ENDBRANCH  49  50
ENDBRANCH  24  49
BRANCH  21  54
HETATM   54  C31 UNL     1      -8.799   4.676   7.979  1.00  0.00     0.052 C 
BRANCH  54  55
HETATM   55  C32 UNL     1      -9.419   3.596   8.790  1.00  0.00     0.115 C 
BRANCH  55  56
HETATM   56  C33 UNL     1      -8.515   2.396   8.653  1.00  0.00     0.139 C 
HETATM   57  O11 UNL     1      -7.422   2.336   9.270  1.00  0.00    -0.650 OA
BRANCH  56  58
HETATM   58  O12 UNL     1      -8.850   1.316   7.847  1.00  0.00    -0.776 OA
HETATM   59  H30 UNL     1      -8.160   1.071   7.131  1.00  0.00     0.167 HD
ENDBRANCH  56  58
ENDBRANCH  55  56
ENDBRANCH  54  55
ENDBRANCH  21  54
BRANCH  18  60
HETATM   60  C35 UNL     1     -14.310   3.813   8.377  1.00  0.00     0.151 C 
BRANCH  60  61
HETATM   61  C36 UNL     1     -14.398   4.508   9.663  1.00  0.00     0.143 C 
HETATM   62  O13 UNL     1     -13.341   4.811  10.285  1.00  0.00    -0.650 OA
BRANCH  61  63
HETATM   63  O14 UNL     1     -15.608   4.860  10.246  1.00  0.00    -0.776 OA
HETATM   64  H33 UNL     1     -16.077   5.688   9.918  1.00  0.00     0.167 HD
ENDBRANCH  61  63
ENDBRANCH  60  61
ENDBRANCH  18  60
BRANCH  14  65
HETATM   65  C38 UNL     1     -16.806   4.740   7.013  1.00  0.00     0.052 C 
BRANCH  65  66
HETATM   66  C39 UNL     1     -17.176   3.670   6.028  1.00  0.00     0.115 C 
BRANCH  66  67
HETATM   67  C40 UNL     1     -17.450   2.397   6.794  1.00  0.00     0.139 C 
HETATM   68  O15 UNL     1     -18.122   2.427   7.858  1.00  0.00    -0.650 OA
BRANCH  67  69
HETATM   69  O16 UNL     1     -16.973   1.198   6.343  1.00  0.00    -0.776 OA
HETATM   70  H38 UNL     1     -17.553   0.376   6.308  1.00  0.00     0.167 HD
ENDBRANCH  67  69
ENDBRANCH  66  67
ENDBRANCH  65  66
ENDBRANCH  14  65
ENDBRANCH   6   7
ENDBRANCH   5   6
ENDBRANCH   2   5
TORSDOF 28
ENDMDL
MODEL 13
REMARK VINA RESULT:      -7.1     17.314     20.729
REMARK  28 active torsions:
REMARK  status: ('A' for Active; 'I' for Inactive)
REMARK    1  A    between atoms: C1_2  and  O2_3 
REMARK    2  A    between atoms: C1_2  and  C2_4 
REMARK    3  A    between atoms: C2_4  and  C3_5 
REMARK    4  A    between atoms: C3_5  and  C4_6 
REMARK    5  A    between atoms: C5_7  and  C6_8 
REMARK    6  A    between atoms: C6_8  and  C7_9 
REMARK    7  A    between atoms: C7_9  and  O4_11 
REMARK    8  A    between atoms: C20_28  and  C21_29 
REMARK    9  A    between atoms: C21_29  and  C22_30 
REMARK   10  A    between atoms: C22_30  and  O6_32 
REMARK   11  A    between atoms: C23_33  and  C24_34 
REMARK   12  A    between atoms: C24_34  and  C25_35 
REMARK   13  A    between atoms: C25_35  and  C26_36 
REMARK   14  A    between atoms: C26_36  and  O8_38 
REMARK   15  A    between atoms: C27_39  and  C28_40 
REMARK   16  A    between atoms: C28_40  and  C29_41 
REMARK   17  A    between atoms: C29_41  and  O10_43 
REMARK   18  A    between atoms: C30_44  and  C31_45 
REMARK   19  A    between atoms: C31_45  and  C32_46 
REMARK   20  A    between atoms: C32_46  and  C33_47 
REMARK   21  A    between atoms: C33_47  and  O12_49 
REMARK   22  A    between atoms: C34_50  and  C35_51 
REMARK   23  A    between atoms: C35_51  and  C36_52 
REMARK   24  A    between atoms: C36_52  and  O14_54 
REMARK   25  A    between atoms: C37_55  and  C38_56 
REMARK   26  A    between atoms: C38_56  and  C39_57 
REMARK   27  A    between atoms: C39_57  and  C40_58 
REMARK   28  A    between atoms: C40_58  and  O16_60 
ROOT
HETATM    1  O1  UNL     1     -15.184   6.171  11.653  1.00  0.00    -0.650 OA
HETATM    2  C1  UNL     1     -15.731   5.136  11.253  1.00  0.00     0.139 C 
ENDROOT
BRANCH   2   3
HETATM    3  O2  UNL     1     -15.121   3.922  11.575  1.00  0.00    -0.776 OA
HETATM    4  H1  UNL     1     -14.124   3.840  11.746  1.00  0.00     0.167 HD
ENDBRANCH   2   3
BRANCH   2   5
HETATM    5  C2  UNL     1     -16.980   5.135  10.467  1.00  0.00     0.115 C 
BRANCH   5   6
HETATM    6  C3  UNL     1     -17.017   4.129   9.375  1.00  0.00     0.052 C 
BRANCH   6   7
HETATM    7  C4  UNL     1     -16.637   4.746   8.076  1.00  0.00    -0.020 A 
HETATM    8  C5  UNL     1     -17.448   5.148   7.093  1.00  0.00    -0.011 A 
HETATM    9  C8  UNL     1     -16.658   5.691   6.014  1.00  0.00     0.067 A 
HETATM   10  C9  UNL     1     -16.974   6.229   4.748  1.00  0.00     0.062 C 
HETATM   11  N4  UNL     1     -15.382   5.603   6.377  1.00  0.00    -0.248 NA
HETATM   12  C10 UNL     1     -16.045   6.584   3.772  1.00  0.00     0.041 A 
HETATM   13  N1  UNL     1     -14.888   6.028   3.366  1.00  0.00    -0.355 N 
HETATM   14  C37 UNL     1     -16.267   7.782   3.054  1.00  0.00    -0.022 A 
HETATM   15  C11 UNL     1     -14.366   6.832   2.422  1.00  0.00     0.042 A 
HETATM   16  H10 UNL     1     -14.459   5.061   3.723  1.00  0.00     0.166 HD
HETATM   17  C12 UNL     1     -13.181   6.793   1.684  1.00  0.00     0.062 C 
HETATM   18  C34 UNL     1     -15.225   7.934   2.218  1.00  0.00    -0.013 A 
HETATM   19  C13 UNL     1     -11.918   6.448   2.200  1.00  0.00     0.066 A 
HETATM   20  N2  UNL     1     -11.816   6.135   3.499  1.00  0.00    -0.248 NA
HETATM   21  C30 UNL     1     -10.603   6.328   1.619  1.00  0.00    -0.020 A 
HETATM   22  C14 UNL     1     -10.539   5.825   3.789  1.00  0.00     0.067 A 
HETATM   23  C15 UNL     1     -10.213   5.460   5.102  1.00  0.00     0.062 C 
HETATM   24  C27 UNL     1      -9.740   5.948   2.575  1.00  0.00    -0.011 A 
HETATM   25  C16 UNL     1     -11.104   5.075   6.127  1.00  0.00     0.041 A 
HETATM   26  N3  UNL     1     -12.317   5.547   6.440  1.00  0.00    -0.355 N 
HETATM   27  C23 UNL     1     -10.754   3.994   6.973  1.00  0.00    -0.022 A 
HETATM   28  C17 UNL     1     -12.788   4.817   7.458  1.00  0.00     0.042 A 
HETATM   29  H13 UNL     1     -12.839   6.417   5.959  1.00  0.00     0.166 HD
HETATM   30  C18 UNL     1     -14.009   4.880   8.155  1.00  0.00     0.062 C 
HETATM   31  C20 UNL     1     -11.836   3.838   7.813  1.00  0.00    -0.013 A 
HETATM   32  C19 UNL     1     -15.288   5.045   7.608  1.00  0.00     0.066 A 
BRANCH   8  33
HETATM   33  C6  UNL     1     -18.932   5.041   7.143  1.00  0.00     0.151 C 
BRANCH  33  34
HETATM   34  C7  UNL     1     -19.444   3.778   6.562  1.00  0.00     0.143 C 
HETATM   35  O3  UNL     1     -19.329   3.579   5.337  1.00  0.00    -0.650 OA
BRANCH  34  36
HETATM   36  O4  UNL     1     -20.033   2.863   7.405  1.00  0.00    -0.776 OA
HETATM   37  H8  UNL     1     -19.570   1.966   7.552  1.00  0.00     0.167 HD
ENDBRANCH  34  36
ENDBRANCH  33  34
ENDBRANCH   8  33
BRANCH  31  38
HETATM   38  C21 UNL     1     -11.960   2.777   8.889  1.00  0.00     0.151 C 
BRANCH  38  39
HETATM   39  C22 UNL     1     -11.450   3.374  10.145  1.00  0.00     0.143 C 
HETATM   40  O5  UNL     1     -10.229   3.303  10.402  1.00  0.00    -0.650 OA
BRANCH  39  41
HETATM   41  O6  UNL     1     -12.266   4.018  11.063  1.00  0.00    -0.776 OA
HETATM   42  H17 UNL     1     -12.144   3.881  12.074  1.00  0.00     0.167 HD
ENDBRANCH  39  41
ENDBRANCH  38  39
ENDBRANCH  31  38
BRANCH  27  43
HETATM   43  C24 UNL     1      -9.519   3.166   7.007  1.00  0.00     0.052 C 
BRANCH  43  44
HETATM   44  C25 UNL     1      -9.722   1.840   6.406  1.00  0.00     0.115 C 
BRANCH  44  45
HETATM   45  C26 UNL     1      -9.630   1.685   4.957  1.00  0.00     0.139 C 
HETATM   46  O7  UNL     1      -9.055   2.364   4.113  1.00  0.00    -0.650 OA
BRANCH  45  47
HETATM   47  O8  UNL     1     -10.328   0.556   4.444  1.00  0.00    -0.776 OA
HETATM   48  H22 UNL     1      -9.880  -0.300   4.226  1.00  0.00     0.167 HD
ENDBRANCH  45  47
ENDBRANCH  44  45
ENDBRANCH  43  44
ENDBRANCH  27  43
BRANCH  24  49
HETATM   49  C28 UNL     1      -8.272   5.692   2.441  1.00  0.00     0.151 C 
BRANCH  49  50
HETATM   50  C29 UNL     1      -8.012   4.576   1.498  1.00  0.00     0.143 C 
HETATM   51  O9  UNL     1      -7.073   4.690   0.678  1.00  0.00    -0.650 OA
BRANCH  50  52
HETATM   52  O10 UNL     1      -8.759   3.412   1.478  1.00  0.00    -0.776 OA
HETATM   53  H25 UNL     1      -9.035   2.961   0.595  1.00  0.00     0.167 HD
ENDBRANCH  50  52
ENDBRANCH  49  50
ENDBRANCH  24  49
BRANCH  21  54
HETATM   54  C31 UNL     1     -10.229   6.557   0.195  1.00  0.00     0.052 C 
BRANCH  54  55
HETATM   55  C32 UNL     1      -9.750   7.932  -0.106  1.00  0.00     0.115 C 
BRANCH  55  56
HETATM   56  C33 UNL     1      -8.335   7.784  -0.608  1.00  0.00     0.139 C 
HETATM   57  O11 UNL     1      -7.357   8.089   0.118  1.00  0.00    -0.650 OA
BRANCH  56  58
HETATM   58  O12 UNL     1      -8.058   7.308  -1.883  1.00  0.00    -0.776 OA
HETATM   59  H30 UNL     1      -8.763   6.682  -2.281  1.00  0.00     0.167 HD
ENDBRANCH  56  58
ENDBRANCH  55  56
ENDBRANCH  54  55
ENDBRANCH  21  54
BRANCH  18  60
HETATM   60  C35 UNL     1     -15.101   9.086   1.265  1.00  0.00     0.151 C 
BRANCH  60  61
HETATM   61  C36 UNL     1     -15.892   8.763   0.075  1.00  0.00     0.143 C 
HETATM   62  O13 UNL     1     -16.572   9.667  -0.488  1.00  0.00    -0.650 OA
BRANCH  61  63
HETATM   63  O14 UNL     1     -15.933   7.490  -0.477  1.00  0.00    -0.776 OA
HETATM   64  H33 UNL     1     -15.084   6.950  -0.502  1.00  0.00     0.167 HD
ENDBRANCH  61  63
ENDBRANCH  60  61
ENDBRANCH  18  60
BRANCH  14  65
HETATM   65  C38 UNL     1     -17.418   8.743   3.126  1.00  0.00     0.052 C 
BRANCH  65  66
HETATM   66  C39 UNL     1     -18.706   7.994   2.947  1.00  0.00     0.115 C 
BRANCH  66  67
HETATM   67  C40 UNL     1     -18.857   7.658   1.482  1.00  0.00     0.139 C 
HETATM   68  O15 UNL     1     -18.572   6.506   1.061  1.00  0.00    -0.650 OA
BRANCH  67  69
HETATM   69  O16 UNL     1     -19.305   8.597   0.595  1.00  0.00    -0.776 OA
HETATM   70  H38 UNL     1     -19.292   9.579   0.812  1.00  0.00     0.167 HD
ENDBRANCH  67  69
ENDBRANCH  66  67
ENDBRANCH  65  66
ENDBRANCH  14  65
ENDBRANCH   6   7
ENDBRANCH   5   6
ENDBRANCH   2   5
TORSDOF 28
ENDMDL
MODEL 14
REMARK VINA RESULT:      -7.0     17.237     20.437
REMARK  28 active torsions:
REMARK  status: ('A' for Active; 'I' for Inactive)
REMARK    1  A    between atoms: C1_2  and  O2_3 
REMARK    2  A    between atoms: C1_2  and  C2_4 
REMARK    3  A    between atoms: C2_4  and  C3_5 
REMARK    4  A    between atoms: C3_5  and  C4_6 
REMARK    5  A    between atoms: C5_7  and  C6_8 
REMARK    6  A    between atoms: C6_8  and  C7_9 
REMARK    7  A    between atoms: C7_9  and  O4_11 
REMARK    8  A    between atoms: C20_28  and  C21_29 
REMARK    9  A    between atoms: C21_29  and  C22_30 
REMARK   10  A    between atoms: C22_30  and  O6_32 
REMARK   11  A    between atoms: C23_33  and  C24_34 
REMARK   12  A    between atoms: C24_34  and  C25_35 
REMARK   13  A    between atoms: C25_35  and  C26_36 
REMARK   14  A    between atoms: C26_36  and  O8_38 
REMARK   15  A    between atoms: C27_39  and  C28_40 
REMARK   16  A    between atoms: C28_40  and  C29_41 
REMARK   17  A    between atoms: C29_41  and  O10_43 
REMARK   18  A    between atoms: C30_44  and  C31_45 
REMARK   19  A    between atoms: C31_45  and  C32_46 
REMARK   20  A    between atoms: C32_46  and  C33_47 
REMARK   21  A    between atoms: C33_47  and  O12_49 
REMARK   22  A    between atoms: C34_50  and  C35_51 
REMARK   23  A    between atoms: C35_51  and  C36_52 
REMARK   24  A    between atoms: C36_52  and  O14_54 
REMARK   25  A    between atoms: C37_55  and  C38_56 
REMARK   26  A    between atoms: C38_56  and  C39_57 
REMARK   27  A    between atoms: C39_57  and  C40_58 
REMARK   28  A    between atoms: C40_58  and  O16_60 
ROOT
HETATM    1  O1  UNL     1     -19.366   6.376   4.393  1.00  0.00    -0.650 OA
HETATM    2  C1  UNL     1     -18.983   6.380   3.217  1.00  0.00     0.139 C 
ENDROOT
BRANCH   2   3
HETATM    3  O2  UNL     1     -18.390   5.212   2.731  1.00  0.00    -0.776 OA
HETATM    4  H1  UNL     1     -18.298   4.372   3.292  1.00  0.00     0.167 HD
ENDBRANCH   2   3
BRANCH   2   5
HETATM    5  C2  UNL     1     -19.127   7.547   2.325  1.00  0.00     0.115 C 
BRANCH   5   6
HETATM    6  C3  UNL     1     -18.234   8.686   2.657  1.00  0.00     0.052 C 
BRANCH   6   7
HETATM    7  C4  UNL     1     -16.809   8.326   2.428  1.00  0.00    -0.020 A 
HETATM    8  C5  UNL     1     -16.141   8.329   1.272  1.00  0.00    -0.011 A 
HETATM    9  C8  UNL     1     -14.779   7.913   1.506  1.00  0.00     0.067 A 
HETATM   10  C9  UNL     1     -13.660   7.717   0.667  1.00  0.00     0.062 C 
HETATM   11  N4  UNL     1     -14.660   7.671   2.807  1.00  0.00    -0.248 NA
HETATM   12  C10 UNL     1     -12.442   7.173   1.069  1.00  0.00     0.041 A 
HETATM   13  N1  UNL     1     -12.121   6.173   1.913  1.00  0.00    -0.355 N 
HETATM   14  C37 UNL     1     -11.259   7.766   0.573  1.00  0.00    -0.022 A 
HETATM   15  C11 UNL     1     -10.778   6.115   1.973  1.00  0.00     0.042 A 
HETATM   16  H10 UNL     1     -12.837   5.496   2.437  1.00  0.00     0.166 HD
HETATM   17  C12 UNL     1      -9.889   5.322   2.702  1.00  0.00     0.062 C 
HETATM   18  C34 UNL     1     -10.228   7.109   1.134  1.00  0.00    -0.013 A 
HETATM   19  C13 UNL     1     -10.044   4.969   4.056  1.00  0.00     0.066 A 
HETATM   20  N2  UNL     1     -11.116   5.423   4.722  1.00  0.00    -0.248 NA
HETATM   21  C30 UNL     1      -9.273   4.163   4.970  1.00  0.00    -0.020 A 
HETATM   22  C14 UNL     1     -11.085   4.967   5.987  1.00  0.00     0.067 A 
HETATM   23  C15 UNL     1     -12.124   5.321   6.859  1.00  0.00     0.062 C 
HETATM   24  C27 UNL     1      -9.891   4.148   6.162  1.00  0.00    -0.011 A 
HETATM   25  C16 UNL     1     -13.383   5.859   6.512  1.00  0.00     0.041 A 
HETATM   26  N3  UNL     1     -13.711   6.757   5.576  1.00  0.00    -0.355 N 
HETATM   27  C23 UNL     1     -14.539   5.390   7.183  1.00  0.00    -0.022 A 
HETATM   28  C17 UNL     1     -15.041   6.899   5.596  1.00  0.00     0.042 A 
HETATM   29  H13 UNL     1     -13.000   7.318   4.911  1.00  0.00     0.166 HD
HETATM   30  C18 UNL     1     -15.898   7.698   4.816  1.00  0.00     0.062 C 
HETATM   31  C20 UNL     1     -15.588   6.057   6.587  1.00  0.00    -0.013 A 
HETATM   32  C19 UNL     1     -15.841   7.898   3.431  1.00  0.00     0.066 A 
BRANCH   8  33
HETATM   33  C6  UNL     1     -16.741   8.712  -0.036  1.00  0.00     0.151 C 
BRANCH  33  34
HETATM   34  C7  UNL     1     -16.705  10.172  -0.287  1.00  0.00     0.143 C 
HETATM   35  O3  UNL     1     -15.955  10.891   0.401  1.00  0.00    -0.650 OA
BRANCH  34  36
HETATM   36  O4  UNL     1     -17.510  10.685  -1.280  1.00  0.00    -0.776 OA
HETATM   37  H8  UNL     1     -17.070  11.169  -2.062  1.00  0.00     0.167 HD
ENDBRANCH  34  36
ENDBRANCH  33  34
ENDBRANCH   8  33
BRANCH  31  38
HETATM   38  C21 UNL     1     -17.051   5.873   6.937  1.00  0.00     0.151 C 
BRANCH  38  39
HETATM   39  C22 UNL     1     -17.451   4.538   6.433  1.00  0.00     0.143 C 
HETATM   40  O5  UNL     1     -18.025   3.741   7.207  1.00  0.00    -0.650 OA
BRANCH  39  41
HETATM   41  O6  UNL     1     -17.220   4.120   5.132  1.00  0.00    -0.776 OA
HETATM   42  H17 UNL     1     -16.431   3.502   4.900  1.00  0.00     0.167 HD
ENDBRANCH  39  41
ENDBRANCH  38  39
ENDBRANCH  31  38
BRANCH  27  43
HETATM   43  C24 UNL     1     -14.671   4.402   8.287  1.00  0.00     0.052 C 
BRANCH  43  44
HETATM   44  C25 UNL     1     -14.966   5.043   9.576  1.00  0.00     0.115 C 
BRANCH  44  45
HETATM   45  C26 UNL     1     -13.986   5.949  10.169  1.00  0.00     0.139 C 
HETATM   46  O7  UNL     1     -12.774   5.835  10.314  1.00  0.00    -0.650 OA
BRANCH  45  47
HETATM   47  O8  UNL     1     -14.537   7.165  10.662  1.00  0.00    -0.776 OA
HETATM   48  H22 UNL     1     -14.180   8.055  10.416  1.00  0.00     0.167 HD
ENDBRANCH  45  47
ENDBRANCH  44  45
ENDBRANCH  43  44
ENDBRANCH  27  43
BRANCH  24  49
HETATM   49  C28 UNL     1      -9.467   3.441   7.411  1.00  0.00     0.151 C 
BRANCH  49  50
HETATM   50  C29 UNL     1      -9.895   2.020   7.387  1.00  0.00     0.143 C 
HETATM   51  O9  UNL     1     -11.101   1.754   7.593  1.00  0.00    -0.650 OA
BRANCH  50  52
HETATM   52  O10 UNL     1      -9.026   0.971   7.147  1.00  0.00    -0.776 OA
HETATM   53  H25 UNL     1      -8.957   0.169   7.788  1.00  0.00     0.167 HD
ENDBRANCH  50  52
ENDBRANCH  49  50
ENDBRANCH  24  49
BRANCH  21  54
HETATM   54  C31 UNL     1      -8.007   3.435   4.672  1.00  0.00     0.052 C 
BRANCH  54  55
HETATM   55  C32 UNL     1      -6.768   4.183   5.011  1.00  0.00     0.115 C 
BRANCH  55  56
HETATM   56  C33 UNL     1      -6.022   3.332   6.010  1.00  0.00     0.139 C 
HETATM   57  O11 UNL     1      -6.503   2.247   6.420  1.00  0.00    -0.650 OA
BRANCH  56  58
HETATM   58  O12 UNL     1      -4.784   3.710   6.512  1.00  0.00    -0.776 OA
HETATM   59  H30 UNL     1      -4.144   4.130   5.833  1.00  0.00     0.167 HD
ENDBRANCH  56  58
ENDBRANCH  55  56
ENDBRANCH  54  55
ENDBRANCH  21  54
BRANCH  18  60
HETATM   60  C35 UNL     1      -8.793   7.433   0.841  1.00  0.00     0.151 C 
BRANCH  60  61
HETATM   61  C36 UNL     1      -8.422   6.728  -0.388  1.00  0.00     0.143 C 
HETATM   62  O13 UNL     1      -8.550   5.473  -0.452  1.00  0.00    -0.650 OA
BRANCH  61  63
HETATM   63  O14 UNL     1      -7.931   7.381  -1.510  1.00  0.00    -0.776 OA
HETATM   64  H33 UNL     1      -8.019   8.383  -1.560  1.00  0.00     0.167 HD
ENDBRANCH  61  63
ENDBRANCH  60  61
ENDBRANCH  18  60
BRANCH  14  65
HETATM   65  C38 UNL     1     -11.088   8.891  -0.407  1.00  0.00     0.052 C 
BRANCH  65  66
HETATM   66  C39 UNL     1     -11.462   8.418  -1.781  1.00  0.00     0.115 C 
BRANCH  66  67
HETATM   67  C40 UNL     1     -10.516   9.053  -2.773  1.00  0.00     0.139 C 
HETATM   68  O15 UNL     1      -9.621   9.847  -2.380  1.00  0.00    -0.650 OA
BRANCH  67  69
HETATM   69  O16 UNL     1     -10.618   8.776  -4.108  1.00  0.00    -0.776 OA
HETATM   70  H38 UNL     1     -10.796   9.497  -4.786  1.00  0.00     0.167 HD
ENDBRANCH  67  69
ENDBRANCH  66  67
ENDBRANCH  65  66
ENDBRANCH  14  65
ENDBRANCH   6   7
ENDBRANCH   5   6
ENDBRANCH   2   5
TORSDOF 28
ENDMDL
MODEL 15
REMARK VINA RESULT:      -7.0     17.894     21.241
REMARK  28 active torsions:
REMARK  status: ('A' for Active; 'I' for Inactive)
REMARK    1  A    between atoms: C1_2  and  O2_3 
REMARK    2  A    between atoms: C1_2  and  C2_4 
REMARK    3  A    between atoms: C2_4  and  C3_5 
REMARK    4  A    between atoms: C3_5  and  C4_6 
REMARK    5  A    between atoms: C5_7  and  C6_8 
REMARK    6  A    between atoms: C6_8  and  C7_9 
REMARK    7  A    between atoms: C7_9  and  O4_11 
REMARK    8  A    between atoms: C20_28  and  C21_29 
REMARK    9  A    between atoms: C21_29  and  C22_30 
REMARK   10  A    between atoms: C22_30  and  O6_32 
REMARK   11  A    between atoms: C23_33  and  C24_34 
REMARK   12  A    between atoms: C24_34  and  C25_35 
REMARK   13  A    between atoms: C25_35  and  C26_36 
REMARK   14  A    between atoms: C26_36  and  O8_38 
REMARK   15  A    between atoms: C27_39  and  C28_40 
REMARK   16  A    between atoms: C28_40  and  C29_41 
REMARK   17  A    between atoms: C29_41  and  O10_43 
REMARK   18  A    between atoms: C30_44  and  C31_45 
REMARK   19  A    between atoms: C31_45  and  C32_46 
REMARK   20  A    between atoms: C32_46  and  C33_47 
REMARK   21  A    between atoms: C33_47  and  O12_49 
REMARK   22  A    between atoms: C34_50  and  C35_51 
REMARK   23  A    between atoms: C35_51  and  C36_52 
REMARK   24  A    between atoms: C36_52  and  O14_54 
REMARK   25  A    between atoms: C37_55  and  C38_56 
REMARK   26  A    between atoms: C38_56  and  C39_57 
REMARK   27  A    between atoms: C39_57  and  C40_58 
REMARK   28  A    between atoms: C40_58  and  O16_60 
ROOT
HETATM    1  O1  UNL     1     -17.950   2.044   6.973  1.00  0.00    -0.650 OA
HETATM    2  C1  UNL     1     -18.257   3.221   6.750  1.00  0.00     0.139 C 
ENDROOT
BRANCH   2   3
HETATM    3  O2  UNL     1     -19.381   3.452   5.954  1.00  0.00    -0.776 OA
HETATM    4  H1  UNL     1     -19.647   2.836   5.194  1.00  0.00     0.167 HD
ENDBRANCH   2   3
BRANCH   2   5
HETATM    5  C2  UNL     1     -17.497   4.368   7.283  1.00  0.00     0.115 C 
BRANCH   5   6
HETATM    6  C3  UNL     1     -17.762   5.655   6.592  1.00  0.00     0.052 C 
BRANCH   6   7
HETATM    7  C4  UNL     1     -16.672   5.974   5.631  1.00  0.00    -0.020 A 
HETATM    8  C5  UNL     1     -16.790   6.323   4.347  1.00  0.00    -0.011 A 
HETATM    9  C8  UNL     1     -15.477   6.544   3.790  1.00  0.00     0.067 A 
HETATM   10  C9  UNL     1     -15.009   6.900   2.506  1.00  0.00     0.062 C 
HETATM   11  N4  UNL     1     -14.595   6.323   4.759  1.00  0.00    -0.248 NA
HETATM   12  C10 UNL     1     -13.670   6.935   2.122  1.00  0.00     0.041 A 
HETATM   13  N1  UNL     1     -12.617   6.145   2.405  1.00  0.00    -0.355 N 
HETATM   14  C37 UNL     1     -13.244   8.012   1.311  1.00  0.00    -0.022 A 
HETATM   15  C11 UNL     1     -11.538   6.685   1.808  1.00  0.00     0.042 A 
HETATM   16  H10 UNL     1     -12.641   5.199   2.997  1.00  0.00     0.166 HD
HETATM   17  C12 UNL     1     -10.186   6.338   1.785  1.00  0.00     0.062 C 
HETATM   18  C34 UNL     1     -11.922   7.856   1.117  1.00  0.00    -0.013 A 
HETATM   19  C13 UNL     1      -9.446   5.894   2.897  1.00  0.00     0.066 A 
HETATM   20  N2  UNL     1     -10.062   5.796   4.084  1.00  0.00    -0.248 NA
HETATM   21  C30 UNL     1      -8.079   5.474   3.081  1.00  0.00    -0.020 A 
HETATM   22  C14 UNL     1      -9.193   5.347   5.007  1.00  0.00     0.067 A 
HETATM   23  C15 UNL     1      -9.637   5.165   6.323  1.00  0.00     0.062 C 
HETATM   24  C27 UNL     1      -7.899   5.134   4.368  1.00  0.00    -0.011 A 
HETATM   25  C16 UNL     1     -10.975   5.104   6.772  1.00  0.00     0.041 A 
HETATM   26  N3  UNL     1     -12.048   5.804   6.386  1.00  0.00    -0.355 N 
HETATM   27  C23 UNL     1     -11.329   4.143   7.750  1.00  0.00    -0.022 A 
HETATM   28  C17 UNL     1     -13.103   5.341   7.067  1.00  0.00     0.042 A 
HETATM   29  H13 UNL     1     -12.063   6.650   5.647  1.00  0.00     0.166 HD
HETATM   30  C18 UNL     1     -14.461   5.711   7.035  1.00  0.00     0.062 C 
HETATM   31  C20 UNL     1     -12.687   4.301   7.926  1.00  0.00    -0.013 A 
HETATM   32  C19 UNL     1     -15.238   5.976   5.901  1.00  0.00     0.066 A 
BRANCH   8  33
HETATM   33  C6  UNL     1     -18.091   6.457   3.637  1.00  0.00     0.151 C 
BRANCH  33  34
HETATM   34  C7  UNL     1     -18.424   5.278   2.804  1.00  0.00     0.143 C 
HETATM   35  O3  UNL     1     -18.561   4.166   3.349  1.00  0.00    -0.650 OA
BRANCH  34  36
HETATM   36  O4  UNL     1     -18.571   5.457   1.447  1.00  0.00    -0.776 OA
HETATM   37  H8  UNL     1     -18.606   4.633   0.847  1.00  0.00     0.167 HD
ENDBRANCH  34  36
ENDBRANCH  33  34
ENDBRANCH   8  33
BRANCH  31  38
HETATM   38  C21 UNL     1     -13.550   3.473   8.857  1.00  0.00     0.151 C 
BRANCH  38  39
HETATM   39  C22 UNL     1     -13.722   4.259  10.100  1.00  0.00     0.143 C 
HETATM   40  O5  UNL     1     -14.850   4.310  10.638  1.00  0.00    -0.650 OA
BRANCH  39  41
HETATM   41  O6  UNL     1     -12.686   4.951  10.708  1.00  0.00    -0.776 OA
HETATM   42  H17 UNL     1     -11.918   5.356  10.158  1.00  0.00     0.167 HD
ENDBRANCH  39  41
ENDBRANCH  38  39
ENDBRANCH  31  38
BRANCH  27  43
HETATM   43  C24 UNL     1     -10.484   3.151   8.468  1.00  0.00     0.052 C 
BRANCH  43  44
HETATM   44  C25 UNL     1     -10.662   1.788   7.947  1.00  0.00     0.115 C 
BRANCH  44  45
HETATM   45  C26 UNL     1     -10.014   1.406   6.695  1.00  0.00     0.139 C 
HETATM   46  O7  UNL     1     -10.223   1.766   5.542  1.00  0.00    -0.650 OA
BRANCH  45  47
HETATM   47  O8  UNL     1      -8.965   0.457   6.846  1.00  0.00    -0.776 OA
HETATM   48  H22 UNL     1      -8.963  -0.234   7.555  1.00  0.00     0.167 HD
ENDBRANCH  45  47
ENDBRANCH  44  45
ENDBRANCH  43  44
ENDBRANCH  27  43
BRANCH  24  49
HETATM   49  C28 UNL     1      -6.649   4.634   5.023  1.00  0.00     0.151 C 
BRANCH  49  50
HETATM   50  C29 UNL     1      -6.907   3.376   5.765  1.00  0.00     0.143 C 
HETATM   51  O9  UNL     1      -6.652   3.340   6.991  1.00  0.00    -0.650 OA
BRANCH  50  52
HETATM   52  O10 UNL     1      -7.417   2.236   5.171  1.00  0.00    -0.776 OA
HETATM   53  H25 UNL     1      -6.915   1.339   5.202  1.00  0.00     0.167 HD
ENDBRANCH  50  52
ENDBRANCH  49  50
ENDBRANCH  24  49
BRANCH  21  54
HETATM   54  C31 UNL     1      -7.018   5.396   2.037  1.00  0.00     0.052 C 
BRANCH  54  55
HETATM   55  C32 UNL     1      -6.028   6.504   2.076  1.00  0.00     0.115 C 
BRANCH  55  56
HETATM   56  C33 UNL     1      -6.703   7.693   1.438  1.00  0.00     0.139 C 
HETATM   57  O11 UNL     1      -6.972   8.721   2.109  1.00  0.00    -0.650 OA
BRANCH  56  58
HETATM   58  O12 UNL     1      -7.051   7.702   0.093  1.00  0.00    -0.776 OA
HETATM   59  H30 UNL     1      -7.941   8.157  -0.127  1.00  0.00     0.167 HD
ENDBRANCH  56  58
ENDBRANCH  55  56
ENDBRANCH  54  55
ENDBRANCH  21  54
BRANCH  18  60
HETATM   60  C35 UNL     1     -11.099   8.795   0.286  1.00  0.00     0.151 C 
BRANCH  60  61
HETATM   61  C36 UNL     1     -10.923   8.179  -1.032  1.00  0.00     0.143 C 
HETATM   62  O13 UNL     1     -11.832   8.293  -1.902  1.00  0.00    -0.650 OA
BRANCH  61  63
HETATM   63  O14 UNL     1      -9.785   7.465  -1.381  1.00  0.00    -0.776 OA
HETATM   64  H33 UNL     1      -8.975   7.974  -1.693  1.00  0.00     0.167 HD
ENDBRANCH  61  63
ENDBRANCH  60  61
ENDBRANCH  18  60
BRANCH  14  65
HETATM   65  C38 UNL     1     -14.040   9.138   0.717  1.00  0.00     0.052 C 
BRANCH  65  66
HETATM   66  C39 UNL     1     -14.203  10.226   1.737  1.00  0.00     0.115 C 
BRANCH  66  67
HETATM   67  C40 UNL     1     -15.629  10.723   1.674  1.00  0.00     0.139 C 
HETATM   68  O15 UNL     1     -15.913  11.760   1.020  1.00  0.00    -0.650 OA
BRANCH  67  69
HETATM   69  O16 UNL     1     -16.628  10.054   2.324  1.00  0.00    -0.776 OA
HETATM   70  H38 UNL     1     -17.597  10.288   2.190  1.00  0.00     0.167 HD
ENDBRANCH  67  69
ENDBRANCH  66  67
ENDBRANCH  65  66
ENDBRANCH  14  65
ENDBRANCH   6   7
ENDBRANCH   5   6
ENDBRANCH   2   5
TORSDOF 28
ENDMDL
MODEL 16
REMARK VINA RESULT:      -6.9     26.832     30.858
REMARK  28 active torsions:
REMARK  status: ('A' for Active; 'I' for Inactive)
REMARK    1  A    between atoms: C1_2  and  O2_3 
REMARK    2  A    between atoms: C1_2  and  C2_4 
REMARK    3  A    between atoms: C2_4  and  C3_5 
REMARK    4  A    between atoms: C3_5  and  C4_6 
REMARK    5  A    between atoms: C5_7  and  C6_8 
REMARK    6  A    between atoms: C6_8  and  C7_9 
REMARK    7  A    between atoms: C7_9  and  O4_11 
REMARK    8  A    between atoms: C20_28  and  C21_29 
REMARK    9  A    between atoms: C21_29  and  C22_30 
REMARK   10  A    between atoms: C22_30  and  O6_32 
REMARK   11  A    between atoms: C23_33  and  C24_34 
REMARK   12  A    between atoms: C24_34  and  C25_35 
REMARK   13  A    between atoms: C25_35  and  C26_36 
REMARK   14  A    between atoms: C26_36  and  O8_38 
REMARK   15  A    between atoms: C27_39  and  C28_40 
REMARK   16  A    between atoms: C28_40  and  C29_41 
REMARK   17  A    between atoms: C29_41  and  O10_43 
REMARK   18  A    between atoms: C30_44  and  C31_45 
REMARK   19  A    between atoms: C31_45  and  C32_46 
REMARK   20  A    between atoms: C32_46  and  C33_47 
REMARK   21  A    between atoms: C33_47  and  O12_49 
REMARK   22  A    between atoms: C34_50  and  C35_51 
REMARK   23  A    between atoms: C35_51  and  C36_52 
REMARK   24  A    between atoms: C36_52  and  O14_54 
REMARK   25  A    between atoms: C37_55  and  C38_56 
REMARK   26  A    between atoms: C38_56  and  C39_57 
REMARK   27  A    between atoms: C39_57  and  C40_58 
REMARK   28  A    between atoms: C40_58  and  O16_60 
ROOT
HETATM    1  O1  UNL     1     -11.081   1.768   7.128  1.00  0.00    -0.650 OA
HETATM    2  C1  UNL     1      -9.939   1.552   7.552  1.00  0.00     0.139 C 
ENDROOT
BRANCH   2   3
HETATM    3  O2  UNL     1      -9.193   0.560   6.912  1.00  0.00    -0.776 OA
HETATM    4  H1  UNL     1      -8.488   0.011   7.393  1.00  0.00     0.167 HD
ENDBRANCH   2   3
BRANCH   2   5
HETATM    5  C2  UNL     1      -9.346   2.289   8.685  1.00  0.00     0.115 C 
BRANCH   5   6
HETATM    6  C3  UNL     1      -8.466   1.470   9.557  1.00  0.00     0.052 C 
BRANCH   6   7
HETATM    7  C4  UNL     1      -7.087   2.029   9.592  1.00  0.00    -0.020 A 
HETATM    8  C5  UNL     1      -6.295   2.182  10.656  1.00  0.00    -0.011 A 
HETATM    9  C8  UNL     1      -5.040   2.761  10.237  1.00  0.00     0.067 A 
HETATM   10  C9  UNL     1      -3.869   3.152  10.922  1.00  0.00     0.062 C 
HETATM   11  N4  UNL     1      -5.109   2.942   8.922  1.00  0.00    -0.248 NA
HETATM   12  C10 UNL     1      -2.794   3.830  10.349  1.00  0.00     0.041 A 
HETATM   13  N1  UNL     1      -2.717   4.813   9.433  1.00  0.00    -0.355 N 
HETATM   14  C37 UNL     1      -1.490   3.429  10.719  1.00  0.00    -0.022 A 
HETATM   15  C11 UNL     1      -1.411   5.046   9.204  1.00  0.00     0.042 A 
HETATM   16  H10 UNL     1      -3.576   5.358   8.974  1.00  0.00     0.166 HD
HETATM   17  C12 UNL     1      -0.733   5.907   8.338  1.00  0.00     0.062 C 
HETATM   18  C34 UNL     1      -0.633   4.184  10.008  1.00  0.00    -0.013 A 
HETATM   19  C13 UNL     1      -1.093   6.158   7.001  1.00  0.00     0.066 A 
HETATM   20  N2  UNL     1      -2.162   5.528   6.493  1.00  0.00    -0.248 NA
HETATM   21  C30 UNL     1      -0.555   7.006   5.966  1.00  0.00    -0.020 A 
HETATM   22  C14 UNL     1      -2.344   5.911   5.216  1.00  0.00     0.067 A 
HETATM   23  C15 UNL     1      -3.419   5.373   4.495  1.00  0.00     0.062 C 
HETATM   24  C27 UNL     1      -1.305   6.870   4.861  1.00  0.00    -0.011 A 
HETATM   25  C16 UNL     1      -4.541   4.693   5.017  1.00  0.00     0.041 A 
HETATM   26  N3  UNL     1      -4.629   3.814   6.022  1.00  0.00    -0.355 N 
HETATM   27  C23 UNL     1      -5.822   4.964   4.477  1.00  0.00    -0.022 A 
HETATM   28  C17 UNL     1      -5.920   3.495   6.173  1.00  0.00     0.042 A 
HETATM   29  H13 UNL     1      -3.774   3.392   6.616  1.00  0.00     0.166 HD
HETATM   30  C18 UNL     1      -6.560   2.635   7.086  1.00  0.00     0.062 C 
HETATM   31  C20 UNL     1      -6.691   4.199   5.224  1.00  0.00    -0.013 A 
HETATM   32  C19 UNL     1      -6.313   2.524   8.460  1.00  0.00     0.066 A 
BRANCH   8  33
HETATM   33  C6  UNL     1      -6.678   1.798  12.042  1.00  0.00     0.151 C 
BRANCH  33  34
HETATM   34  C7  UNL     1      -7.163   2.941  12.849  1.00  0.00     0.143 C 
HETATM   35  O3  UNL     1      -6.410   3.449  13.702  1.00  0.00    -0.650 OA
BRANCH  34  36
HETATM   36  O4  UNL     1      -8.441   3.403  12.626  1.00  0.00    -0.776 OA
HETATM   37  H8  UNL     1      -9.055   3.545  13.427  1.00  0.00     0.167 HD
ENDBRANCH  34  36
ENDBRANCH  33  34
ENDBRANCH   8  33
BRANCH  31  38
HETATM   38  C21 UNL     1      -8.197   4.167   5.052  1.00  0.00     0.151 C 
BRANCH  38  39
HETATM   39  C22 UNL     1      -8.496   3.103   4.065  1.00  0.00     0.143 C 
HETATM   40  O5  UNL     1      -8.818   3.425   2.901  1.00  0.00    -0.650 OA
BRANCH  39  41
HETATM   41  O6  UNL     1      -8.435   1.751   4.367  1.00  0.00    -0.776 OA
HETATM   42  H17 UNL     1      -9.176   1.103   4.070  1.00  0.00     0.167 HD
ENDBRANCH  39  41
ENDBRANCH  38  39
ENDBRANCH  31  38
BRANCH  27  43
HETATM   43  C24 UNL     1      -6.219   5.861   3.358  1.00  0.00     0.052 C 
BRANCH  43  44
HETATM   44  C25 UNL     1      -5.744   5.372   2.056  1.00  0.00     0.115 C 
BRANCH  44  45
HETATM   45  C26 UNL     1      -6.678   5.285   0.937  1.00  0.00     0.139 C 
HETATM   46  O7  UNL     1      -6.499   4.968  -0.234  1.00  0.00    -0.650 OA
BRANCH  45  47
HETATM   47  O8  UNL     1      -8.019   5.629   1.266  1.00  0.00    -0.776 OA
HETATM   48  H22 UNL     1      -8.250   6.395   1.848  1.00  0.00     0.167 HD
ENDBRANCH  45  47
ENDBRANCH  44  45
ENDBRANCH  43  44
ENDBRANCH  27  43
BRANCH  24  49
HETATM   49  C28 UNL     1      -1.132   7.555   3.541  1.00  0.00     0.151 C 
BRANCH  49  50
HETATM   50  C29 UNL     1      -0.177   6.815   2.681  1.00  0.00     0.143 C 
HETATM   51  O9  UNL     1      -0.499   5.677   2.268  1.00  0.00    -0.650 OA
BRANCH  50  52
HETATM   52  O10 UNL     1       1.057   7.319   2.310  1.00  0.00    -0.776 OA
HETATM   53  H25 UNL     1       1.347   8.275   2.558  1.00  0.00     0.167 HD
ENDBRANCH  50  52
ENDBRANCH  49  50
ENDBRANCH  24  49
BRANCH  21  54
HETATM   54  C31 UNL     1       0.624   7.912   6.074  1.00  0.00     0.052 C 
BRANCH  54  55
HETATM   55  C32 UNL     1       0.288   9.336   6.335  1.00  0.00     0.115 C 
BRANCH  55  56
HETATM   56  C33 UNL     1       1.110  10.147   5.363  1.00  0.00     0.139 C 
HETATM   57  O11 UNL     1       1.365  11.357   5.585  1.00  0.00    -0.650 OA
BRANCH  56  58
HETATM   58  O12 UNL     1       1.613   9.594   4.193  1.00  0.00    -0.776 OA
HETATM   59  H30 UNL     1       2.561   9.214   4.259  1.00  0.00     0.167 HD
ENDBRANCH  56  58
ENDBRANCH  55  56
ENDBRANCH  54  55
ENDBRANCH  21  54
BRANCH  18  60
HETATM   60  C35 UNL     1       0.857   4.071  10.133  1.00  0.00     0.151 C 
BRANCH  60  61
HETATM   61  C36 UNL     1       1.248   4.734  11.379  1.00  0.00     0.143 C 
HETATM   62  O13 UNL     1       0.900   5.931  11.587  1.00  0.00    -0.650 OA
BRANCH  61  63
HETATM   63  O14 UNL     1       1.993   4.102  12.365  1.00  0.00    -0.776 OA
HETATM   64  H33 UNL     1       2.856   4.527  12.662  1.00  0.00     0.167 HD
ENDBRANCH  61  63
ENDBRANCH  60  61
ENDBRANCH  18  60
BRANCH  14  65
HETATM   65  C38 UNL     1      -1.050   2.395  11.714  1.00  0.00     0.052 C 
BRANCH  65  66
HETATM   66  C39 UNL     1      -0.686   1.130  10.992  1.00  0.00     0.115 C 
BRANCH  66  67
HETATM   67  C40 UNL     1       0.770   0.833  11.265  1.00  0.00     0.139 C 
HETATM   68  O15 UNL     1       1.289   1.151  12.367  1.00  0.00    -0.650 OA
BRANCH  67  69
HETATM   69  O16 UNL     1       1.543   0.217  10.321  1.00  0.00    -0.776 OA
HETATM   70  H38 UNL     1       2.518   0.439  10.207  1.00  0.00     0.167 HD
ENDBRANCH  67  69
ENDBRANCH  66  67
ENDBRANCH  65  66
ENDBRANCH  14  65
ENDBRANCH   6   7
ENDBRANCH   5   6
ENDBRANCH   2   5
TORSDOF 28
ENDMDL
MODEL 17
REMARK VINA RESULT:      -6.9     24.911     28.362
REMARK  28 active torsions:
REMARK  status: ('A' for Active; 'I' for Inactive)
REMARK    1  A    between atoms: C1_2  and  O2_3 
REMARK    2  A    between atoms: C1_2  and  C2_4 
REMARK    3  A    between atoms: C2_4  and  C3_5 
REMARK    4  A    between atoms: C3_5  and  C4_6 
REMARK    5  A    between atoms: C5_7  and  C6_8 
REMARK    6  A    between atoms: C6_8  and  C7_9 
REMARK    7  A    between atoms: C7_9  and  O4_11 
REMARK    8  A    between atoms: C20_28  and  C21_29 
REMARK    9  A    between atoms: C21_29  and  C22_30 
REMARK   10  A    between atoms: C22_30  and  O6_32 
REMARK   11  A    between atoms: C23_33  and  C24_34 
REMARK   12  A    between atoms: C24_34  and  C25_35 
REMARK   13  A    between atoms: C25_35  and  C26_36 
REMARK   14  A    between atoms: C26_36  and  O8_38 
REMARK   15  A    between atoms: C27_39  and  C28_40 
REMARK   16  A    between atoms: C28_40  and  C29_41 
REMARK   17  A    between atoms: C29_41  and  O10_43 
REMARK   18  A    between atoms: C30_44  and  C31_45 
REMARK   19  A    between atoms: C31_45  and  C32_46 
REMARK   20  A    between atoms: C32_46  and  C33_47 
REMARK   21  A    between atoms: C33_47  and  O12_49 
REMARK   22  A    between atoms: C34_50  and  C35_51 
REMARK   23  A    between atoms: C35_51  and  C36_52 
REMARK   24  A    between atoms: C36_52  and  O14_54 
REMARK   25  A    between atoms: C37_55  and  C38_56 
REMARK   26  A    between atoms: C38_56  and  C39_57 
REMARK   27  A    between atoms: C39_57  and  C40_58 
REMARK   28  A    between atoms: C40_58  and  O16_60 
ROOT
HETATM    1  O1  UNL     1      -6.137   3.767  13.106  1.00  0.00    -0.650 OA
HETATM    2  C1  UNL     1      -5.256   2.990  12.716  1.00  0.00     0.139 C 
ENDROOT
BRANCH   2   3
HETATM    3  O2  UNL     1      -5.639   1.680  12.421  1.00  0.00    -0.776 OA
HETATM    4  H1  UNL     1      -5.731   1.339  11.470  1.00  0.00     0.167 HD
ENDBRANCH   2   3
BRANCH   2   5
HETATM    5  C2  UNL     1      -3.844   3.388  12.552  1.00  0.00     0.115 C 
BRANCH   5   6
HETATM    6  C3  UNL     1      -3.111   2.630  11.507  1.00  0.00     0.052 C 
BRANCH   6   7
HETATM    7  C4  UNL     1      -3.153   3.349  10.205  1.00  0.00    -0.020 A 
HETATM    8  C5  UNL     1      -2.337   4.317   9.779  1.00  0.00    -0.011 A 
HETATM    9  C8  UNL     1      -2.736   4.730   8.455  1.00  0.00     0.067 A 
HETATM   10  C9  UNL     1      -2.260   5.705   7.552  1.00  0.00     0.062 C 
HETATM   11  N4  UNL     1      -3.788   3.994   8.113  1.00  0.00    -0.248 NA
HETATM   12  C10 UNL     1      -2.874   6.053   6.350  1.00  0.00     0.041 A 
HETATM   13  N1  UNL     1      -4.164   6.193   5.989  1.00  0.00    -0.355 N 
HETATM   14  C37 UNL     1      -2.045   6.272   5.225  1.00  0.00    -0.022 A 
HETATM   15  C11 UNL     1      -4.183   6.487   4.676  1.00  0.00     0.042 A 
HETATM   16  H10 UNL     1      -5.050   6.114   6.663  1.00  0.00     0.166 HD
HETATM   17  C12 UNL     1      -5.216   6.696   3.760  1.00  0.00     0.062 C 
HETATM   18  C34 UNL     1      -2.859   6.541   4.188  1.00  0.00    -0.013 A 
HETATM   19  C13 UNL     1      -6.399   5.936   3.689  1.00  0.00     0.066 A 
HETATM   20  N2  UNL     1      -6.567   4.922   4.550  1.00  0.00    -0.248 NA
HETATM   21  C30 UNL     1      -7.573   5.996   2.853  1.00  0.00    -0.020 A 
HETATM   22  C14 UNL     1      -7.756   4.334   4.326  1.00  0.00     0.067 A 
HETATM   23  C15 UNL     1      -8.135   3.249   5.127  1.00  0.00     0.062 C 
HETATM   24  C27 UNL     1      -8.419   5.022   3.225  1.00  0.00    -0.011 A 
HETATM   25  C16 UNL     1      -7.566   2.856   6.358  1.00  0.00     0.041 A 
HETATM   26  N3  UNL     1      -6.288   2.848   6.756  1.00  0.00    -0.355 N 
HETATM   27  C23 UNL     1      -8.419   2.437   7.409  1.00  0.00    -0.022 A 
HETATM   28  C17 UNL     1      -6.261   2.445   8.031  1.00  0.00     0.042 A 
HETATM   29  H13 UNL     1      -5.392   3.104   6.128  1.00  0.00     0.166 HD
HETATM   30  C18 UNL     1      -5.186   2.275   8.925  1.00  0.00     0.062 C 
HETATM   31  C20 UNL     1      -7.576   2.182   8.468  1.00  0.00    -0.013 A 
HETATM   32  C19 UNL     1      -4.100   3.137   9.116  1.00  0.00     0.066 A 
BRANCH   8  33
HETATM   33  C6  UNL     1      -1.199   4.857  10.574  1.00  0.00     0.151 C 
BRANCH  33  34
HETATM   34  C7  UNL     1       0.111   4.301  10.164  1.00  0.00     0.143 C 
HETATM   35  O3  UNL     1       0.419   3.145  10.511  1.00  0.00    -0.650 OA
BRANCH  34  36
HETATM   36  O4  UNL     1       0.949   5.091   9.408  1.00  0.00    -0.776 OA
HETATM   37  H8  UNL     1       1.498   4.652   8.670  1.00  0.00     0.167 HD
ENDBRANCH  34  36
ENDBRANCH  33  34
ENDBRANCH   8  33
BRANCH  31  38
HETATM   38  C21 UNL     1      -8.017   1.732   9.847  1.00  0.00     0.151 C 
BRANCH  38  39
HETATM   39  C22 UNL     1      -8.490   2.940  10.564  1.00  0.00     0.143 C 
HETATM   40  O5  UNL     1      -9.584   2.902  11.168  1.00  0.00    -0.650 OA
BRANCH  39  41
HETATM   41  O6  UNL     1      -7.773   4.126  10.603  1.00  0.00    -0.776 OA
HETATM   42  H17 UNL     1      -7.516   4.567  11.495  1.00  0.00     0.167 HD
ENDBRANCH  39  41
ENDBRANCH  38  39
ENDBRANCH  31  38
BRANCH  27  43
HETATM   43  C24 UNL     1      -9.898   2.284   7.437  1.00  0.00     0.052 C 
BRANCH  43  44
HETATM   44  C25 UNL     1     -10.586   3.564   7.659  1.00  0.00     0.115 C 
BRANCH  44  45
HETATM   45  C26 UNL     1     -11.815   3.592   8.448  1.00  0.00     0.139 C 
HETATM   46  O7  UNL     1     -12.927   3.129   8.217  1.00  0.00    -0.650 OA
BRANCH  45  47
HETATM   47  O8  UNL     1     -11.696   4.274   9.691  1.00  0.00    -0.776 OA
HETATM   48  H22 UNL     1     -12.413   4.849  10.059  1.00  0.00     0.167 HD
ENDBRANCH  45  47
ENDBRANCH  44  45
ENDBRANCH  43  44
ENDBRANCH  27  43
BRANCH  24  49
HETATM   49  C28 UNL     1      -9.764   4.702   2.650  1.00  0.00     0.151 C 
BRANCH  49  50
HETATM   50  C29 UNL     1      -9.635   4.141   1.282  1.00  0.00     0.143 C 
HETATM   51  O9  UNL     1     -10.241   4.706   0.343  1.00  0.00    -0.650 OA
BRANCH  50  52
HETATM   52  O10 UNL     1      -8.877   3.021   0.991  1.00  0.00    -0.776 OA
HETATM   53  H25 UNL     1      -9.108   2.402   0.202  1.00  0.00     0.167 HD
ENDBRANCH  50  52
ENDBRANCH  49  50
ENDBRANCH  24  49
BRANCH  21  54
HETATM   54  C31 UNL     1      -7.846   6.974   1.762  1.00  0.00     0.052 C 
BRANCH  54  55
HETATM   55  C32 UNL     1      -6.799   7.036   0.709  1.00  0.00     0.115 C 
BRANCH  55  56
HETATM   56  C33 UNL     1      -7.164   5.983  -0.309  1.00  0.00     0.139 C 
HETATM   57  O11 UNL     1      -6.628   4.848  -0.285  1.00  0.00    -0.650 OA
BRANCH  56  58
HETATM   58  O12 UNL     1      -8.100   6.224  -1.306  1.00  0.00    -0.776 OA
HETATM   59  H30 UNL     1      -8.257   5.451  -1.959  1.00  0.00     0.167 HD
ENDBRANCH  56  58
ENDBRANCH  55  56
ENDBRANCH  54  55
ENDBRANCH  21  54
BRANCH  18  60
HETATM   60  C35 UNL     1      -2.354   6.851   2.810  1.00  0.00     0.151 C 
BRANCH  60  61
HETATM   61  C36 UNL     1      -1.952   5.585   2.192  1.00  0.00     0.143 C 
HETATM   62  O13 UNL     1      -2.816   4.687   1.987  1.00  0.00    -0.650 OA
BRANCH  61  63
HETATM   63  O14 UNL     1      -0.645   5.317   1.810  1.00  0.00    -0.776 OA
HETATM   64  H33 UNL     1      -0.031   6.091   1.618  1.00  0.00     0.167 HD
ENDBRANCH  61  63
ENDBRANCH  60  61
ENDBRANCH  18  60
BRANCH  14  65
HETATM   65  C38 UNL     1      -0.548   6.254   5.119  1.00  0.00     0.052 C 
BRANCH  65  66
HETATM   66  C39 UNL     1      -0.004   7.598   5.505  1.00  0.00     0.115 C 
BRANCH  66  67
HETATM   67  C40 UNL     1       0.810   8.128   4.348  1.00  0.00     0.139 C 
HETATM   68  O15 UNL     1       1.155   9.339   4.315  1.00  0.00    -0.650 OA
BRANCH  67  69
HETATM   69  O16 UNL     1       1.182   7.303   3.323  1.00  0.00    -0.776 OA
HETATM   70  H38 UNL     1       1.757   6.492   3.478  1.00  0.00     0.167 HD
ENDBRANCH  67  69
ENDBRANCH  66  67
ENDBRANCH  65  66
ENDBRANCH  14  65
ENDBRANCH   6   7
ENDBRANCH   5   6
ENDBRANCH   2   5
TORSDOF 28
ENDMDL
MODEL 18
REMARK VINA RESULT:      -6.9     17.448     21.070
REMARK  28 active torsions:
REMARK  status: ('A' for Active; 'I' for Inactive)
REMARK    1  A    between atoms: C1_2  and  O2_3 
REMARK    2  A    between atoms: C1_2  and  C2_4 
REMARK    3  A    between atoms: C2_4  and  C3_5 
REMARK    4  A    between atoms: C3_5  and  C4_6 
REMARK    5  A    between atoms: C5_7  and  C6_8 
REMARK    6  A    between atoms: C6_8  and  C7_9 
REMARK    7  A    between atoms: C7_9  and  O4_11 
REMARK    8  A    between atoms: C20_28  and  C21_29 
REMARK    9  A    between atoms: C21_29  and  C22_30 
REMARK   10  A    between atoms: C22_30  and  O6_32 
REMARK   11  A    between atoms: C23_33  and  C24_34 
REMARK   12  A    between atoms: C24_34  and  C25_35 
REMARK   13  A    between atoms: C25_35  and  C26_36 
REMARK   14  A    between atoms: C26_36  and  O8_38 
REMARK   15  A    between atoms: C27_39  and  C28_40 
REMARK   16  A    between atoms: C28_40  and  C29_41 
REMARK   17  A    between atoms: C29_41  and  O10_43 
REMARK   18  A    between atoms: C30_44  and  C31_45 
REMARK   19  A    between atoms: C31_45  and  C32_46 
REMARK   20  A    between atoms: C32_46  and  C33_47 
REMARK   21  A    between atoms: C33_47  and  O12_49 
REMARK   22  A    between atoms: C34_50  and  C35_51 
REMARK   23  A    between atoms: C35_51  and  C36_52 
REMARK   24  A    between atoms: C36_52  and  O14_54 
REMARK   25  A    between atoms: C37_55  and  C38_56 
REMARK   26  A    between atoms: C38_56  and  C39_57 
REMARK   27  A    between atoms: C39_57  and  C40_58 
REMARK   28  A    between atoms: C40_58  and  O16_60 
ROOT
HETATM    1  O1  UNL     1     -17.285   5.314  11.821  1.00  0.00    -0.650 OA
HETATM    2  C1  UNL     1     -16.612   5.889  10.958  1.00  0.00     0.139 C 
ENDROOT
BRANCH   2   3
HETATM    3  O2  UNL     1     -17.093   7.109  10.475  1.00  0.00    -0.776 OA
HETATM    4  H1  UNL     1     -18.082   7.298  10.360  1.00  0.00     0.167 HD
ENDBRANCH   2   3
BRANCH   2   5
HETATM    5  C2  UNL     1     -15.344   5.349  10.429  1.00  0.00     0.115 C 
BRANCH   5   6
HETATM    6  C3  UNL     1     -15.510   4.308   9.383  1.00  0.00     0.052 C 
BRANCH   6   7
HETATM    7  C4  UNL     1     -15.332   4.890   8.025  1.00  0.00    -0.020 A 
HETATM    8  C5  UNL     1     -16.279   5.166   7.124  1.00  0.00    -0.011 A 
HETATM    9  C8  UNL     1     -15.666   5.723   5.942  1.00  0.00     0.067 A 
HETATM   10  C9  UNL     1     -16.167   6.165   4.699  1.00  0.00     0.062 C 
HETATM   11  N4  UNL     1     -14.356   5.771   6.163  1.00  0.00    -0.248 NA
HETATM   12  C10 UNL     1     -15.386   6.554   3.612  1.00  0.00     0.041 A 
HETATM   13  N1  UNL     1     -14.231   6.085   3.102  1.00  0.00    -0.355 N 
HETATM   14  C37 UNL     1     -15.799   7.688   2.875  1.00  0.00    -0.022 A 
HETATM   15  C11 UNL     1     -13.894   6.885   2.073  1.00  0.00     0.042 A 
HETATM   16  H10 UNL     1     -13.675   5.181   3.447  1.00  0.00     0.166 HD
HETATM   17  C12 UNL     1     -12.797   6.917   1.210  1.00  0.00     0.062 C 
HETATM   18  C34 UNL     1     -14.872   7.892   1.922  1.00  0.00    -0.013 A 
HETATM   19  C13 UNL     1     -11.458   6.714   1.595  1.00  0.00     0.066 A 
HETATM   20  N2  UNL     1     -11.188   6.479   2.886  1.00  0.00    -0.248 NA
HETATM   21  C30 UNL     1     -10.208   6.685   0.876  1.00  0.00    -0.020 A 
HETATM   22  C14 UNL     1      -9.863   6.302   3.044  1.00  0.00     0.067 A 
HETATM   23  C15 UNL     1      -9.364   6.035   4.326  1.00  0.00     0.062 C 
HETATM   24  C27 UNL     1      -9.215   6.435   1.744  1.00  0.00    -0.011 A 
HETATM   25  C16 UNL     1     -10.099   5.623   5.459  1.00  0.00     0.041 A 
HETATM   26  N3  UNL     1     -11.311   5.997   5.886  1.00  0.00    -0.355 N 
HETATM   27  C23 UNL     1      -9.558   4.623   6.304  1.00  0.00    -0.022 A 
HETATM   28  C17 UNL     1     -11.597   5.280   6.979  1.00  0.00     0.042 A 
HETATM   29  H13 UNL     1     -11.963   6.791   5.432  1.00  0.00     0.166 HD
HETATM   30  C18 UNL     1     -12.737   5.267   7.805  1.00  0.00     0.062 C 
HETATM   31  C20 UNL     1     -10.523   4.411   7.264  1.00  0.00    -0.013 A 
HETATM   32  C19 UNL     1     -14.077   5.286   7.398  1.00  0.00     0.066 A 
BRANCH   8  33
HETATM   33  C6  UNL     1     -17.732   4.927   7.344  1.00  0.00     0.151 C 
BRANCH  33  34
HETATM   34  C7  UNL     1     -18.196   3.629   6.802  1.00  0.00     0.143 C 
HETATM   35  O3  UNL     1     -18.566   3.560   5.614  1.00  0.00    -0.650 OA
BRANCH  34  36
HETATM   36  O4  UNL     1     -18.203   2.535   7.640  1.00  0.00    -0.776 OA
HETATM   37  H8  UNL     1     -18.647   1.676   7.316  1.00  0.00     0.167 HD
ENDBRANCH  34  36
ENDBRANCH  33  34
ENDBRANCH   8  33
BRANCH  31  38
HETATM   38  C21 UNL     1     -10.428   3.400   8.390  1.00  0.00     0.151 C 
BRANCH  38  39
HETATM   39  C22 UNL     1     -11.349   2.290   8.051  1.00  0.00     0.143 C 
HETATM   40  O5  UNL     1     -12.481   2.253   8.580  1.00  0.00    -0.650 OA
BRANCH  39  41
HETATM   41  O6  UNL     1     -11.018   1.275   7.166  1.00  0.00    -0.776 OA
HETATM   42  H17 UNL     1     -10.109   1.259   6.686  1.00  0.00     0.167 HD
ENDBRANCH  39  41
ENDBRANCH  38  39
ENDBRANCH  31  38
BRANCH  27  43
HETATM   43  C24 UNL     1      -8.252   3.913   6.232  1.00  0.00     0.052 C 
BRANCH  43  44
HETATM   44  C25 UNL     1      -8.402   2.514   5.808  1.00  0.00     0.115 C 
BRANCH  44  45
HETATM   45  C26 UNL     1      -9.148   2.208   4.591  1.00  0.00     0.139 C 
HETATM   46  O7  UNL     1     -10.096   1.453   4.399  1.00  0.00    -0.650 OA
BRANCH  45  47
HETATM   47  O8  UNL     1      -8.694   2.903   3.436  1.00  0.00    -0.776 OA
HETATM   48  H22 UNL     1      -7.746   3.150   3.295  1.00  0.00     0.167 HD
ENDBRANCH  45  47
ENDBRANCH  44  45
ENDBRANCH  43  44
ENDBRANCH  27  43
BRANCH  24  49
HETATM   49  C28 UNL     1      -7.752   6.307   1.458  1.00  0.00     0.151 C 
BRANCH  49  50
HETATM   50  C29 UNL     1      -7.464   5.051   0.722  1.00  0.00     0.143 C 
HETATM   51  O9  UNL     1      -8.081   4.011   1.046  1.00  0.00    -0.650 OA
BRANCH  50  52
HETATM   52  O10 UNL     1      -6.544   4.971  -0.308  1.00  0.00    -0.776 OA
HETATM   53  H25 UNL     1      -6.575   5.611  -1.113  1.00  0.00     0.167 HD
ENDBRANCH  50  52
ENDBRANCH  49  50
ENDBRANCH  24  49
BRANCH  21  54
HETATM   54  C31 UNL     1     -10.014   6.875  -0.589  1.00  0.00     0.052 C 
BRANCH  54  55
HETATM   55  C32 UNL     1      -9.768   8.281  -1.004  1.00  0.00     0.115 C 
BRANCH  55  56
HETATM   56  C33 UNL     1      -8.338   8.335  -1.483  1.00  0.00     0.139 C 
HETATM   57  O11 UNL     1      -7.666   9.392  -1.392  1.00  0.00    -0.650 OA
BRANCH  56  58
HETATM   58  O12 UNL     1      -7.712   7.228  -2.040  1.00  0.00    -0.776 OA
HETATM   59  H30 UNL     1      -6.700   7.316  -2.171  1.00  0.00     0.167 HD
ENDBRANCH  56  58
ENDBRANCH  55  56
ENDBRANCH  54  55
ENDBRANCH  21  54
BRANCH  18  60
HETATM   60  C35 UNL     1     -14.963   9.001   0.916  1.00  0.00     0.151 C 
BRANCH  60  61
HETATM   61  C36 UNL     1     -15.777   8.518  -0.202  1.00  0.00     0.143 C 
HETATM   62  O13 UNL     1     -15.550   7.377  -0.694  1.00  0.00    -0.650 OA
BRANCH  61  63
HETATM   63  O14 UNL     1     -16.807   9.263  -0.759  1.00  0.00    -0.776 OA
HETATM   64  H33 UNL     1     -17.745   8.901  -0.707  1.00  0.00     0.167 HD
ENDBRANCH  61  63
ENDBRANCH  60  61
ENDBRANCH  18  60
BRANCH  14  65
HETATM   65  C38 UNL     1     -17.023   8.543   3.036  1.00  0.00     0.052 C 
BRANCH  65  66
HETATM   66  C39 UNL     1     -18.241   7.668   3.072  1.00  0.00     0.115 C 
BRANCH  66  67
HETATM   67  C40 UNL     1     -18.531   7.204   1.663  1.00  0.00     0.139 C 
HETATM   68  O15 UNL     1     -18.912   8.026   0.789  1.00  0.00    -0.650 OA
BRANCH  67  69
HETATM   69  O16 UNL     1     -18.385   5.889   1.320  1.00  0.00    -0.776 OA
HETATM   70  H38 UNL     1     -19.103   5.389   0.822  1.00  0.00     0.167 HD
ENDBRANCH  67  69
ENDBRANCH  66  67
ENDBRANCH  65  66
ENDBRANCH  14  65
ENDBRANCH   6   7
ENDBRANCH   5   6
ENDBRANCH   2   5
TORSDOF 28
ENDMDL
MODEL 19
REMARK VINA RESULT:      -6.9     18.803     22.810
REMARK  28 active torsions:
REMARK  status: ('A' for Active; 'I' for Inactive)
REMARK    1  A    between atoms: C1_2  and  O2_3 
REMARK    2  A    between atoms: C1_2  and  C2_4 
REMARK    3  A    between atoms: C2_4  and  C3_5 
REMARK    4  A    between atoms: C3_5  and  C4_6 
REMARK    5  A    between atoms: C5_7  and  C6_8 
REMARK    6  A    between atoms: C6_8  and  C7_9 
REMARK    7  A    between atoms: C7_9  and  O4_11 
REMARK    8  A    between atoms: C20_28  and  C21_29 
REMARK    9  A    between atoms: C21_29  and  C22_30 
REMARK   10  A    between atoms: C22_30  and  O6_32 
REMARK   11  A    between atoms: C23_33  and  C24_34 
REMARK   12  A    between atoms: C24_34  and  C25_35 
REMARK   13  A    between atoms: C25_35  and  C26_36 
REMARK   14  A    between atoms: C26_36  and  O8_38 
REMARK   15  A    between atoms: C27_39  and  C28_40 
REMARK   16  A    between atoms: C28_40  and  C29_41 
REMARK   17  A    between atoms: C29_41  and  O10_43 
REMARK   18  A    between atoms: C30_44  and  C31_45 
REMARK   19  A    between atoms: C31_45  and  C32_46 
REMARK   20  A    between atoms: C32_46  and  C33_47 
REMARK   21  A    between atoms: C33_47  and  O12_49 
REMARK   22  A    between atoms: C34_50  and  C35_51 
REMARK   23  A    between atoms: C35_51  and  C36_52 
REMARK   24  A    between atoms: C36_52  and  O14_54 
REMARK   25  A    between atoms: C37_55  and  C38_56 
REMARK   26  A    between atoms: C38_56  and  C39_57 
REMARK   27  A    between atoms: C39_57  and  C40_58 
REMARK   28  A    between atoms: C40_58  and  O16_60 
ROOT
HETATM    1  O1  UNL     1     -10.290  10.934  -0.040  1.00  0.00    -0.650 OA
HETATM    2  C1  UNL     1      -9.458  10.093  -0.402  1.00  0.00     0.139 C 
ENDROOT
BRANCH   2   3
HETATM    3  O2  UNL     1      -8.215  10.104   0.234  1.00  0.00    -0.776 OA
HETATM    4  H1  UNL     1      -7.794  10.954   0.594  1.00  0.00     0.167 HD
ENDBRANCH   2   3
BRANCH   2   5
HETATM    5  C2  UNL     1      -9.725   9.097  -1.458  1.00  0.00     0.115 C 
BRANCH   5   6
HETATM    6  C3  UNL     1     -10.777   8.107  -1.117  1.00  0.00     0.052 C 
BRANCH   6   7
HETATM    7  C4  UNL     1     -10.426   7.369   0.127  1.00  0.00    -0.020 A 
HETATM    8  C5  UNL     1      -9.441   6.485   0.302  1.00  0.00    -0.011 A 
HETATM    9  C8  UNL     1      -9.458   6.014   1.666  1.00  0.00     0.067 A 
HETATM   10  C9  UNL     1      -8.681   5.081   2.387  1.00  0.00     0.062 C 
HETATM   11  N4  UNL     1     -10.459   6.633   2.284  1.00  0.00    -0.248 NA
HETATM   12  C10 UNL     1      -8.942   4.655   3.688  1.00  0.00     0.041 A 
HETATM   13  N1  UNL     1     -10.083   4.378   4.348  1.00  0.00    -0.355 N 
HETATM   14  C37 UNL     1      -7.844   4.507   4.566  1.00  0.00    -0.022 A 
HETATM   15  C11 UNL     1      -9.749   4.066   5.613  1.00  0.00     0.042 A 
HETATM   16  H10 UNL     1     -11.112   4.375   3.915  1.00  0.00     0.166 HD
HETATM   17  C12 UNL     1     -10.498   3.739   6.745  1.00  0.00     0.062 C 
HETATM   18  C34 UNL     1      -8.346   4.142   5.759  1.00  0.00    -0.013 A 
HETATM   19  C13 UNL     1     -11.693   4.372   7.134  1.00  0.00     0.066 A 
HETATM   20  N2  UNL     1     -12.166   5.375   6.380  1.00  0.00    -0.248 NA
HETATM   21  C30 UNL     1     -12.613   4.180   8.228  1.00  0.00    -0.020 A 
HETATM   22  C14 UNL     1     -13.315   5.834   6.910  1.00  0.00     0.067 A 
HETATM   23  C15 UNL     1     -13.983   6.885   6.269  1.00  0.00     0.062 C 
HETATM   24  C27 UNL     1     -13.615   5.066   8.113  1.00  0.00    -0.011 A 
HETATM   25  C16 UNL     1     -13.776   7.351   4.953  1.00  0.00     0.041 A 
HETATM   26  N3  UNL     1     -12.643   7.497   4.255  1.00  0.00    -0.355 N 
HETATM   27  C23 UNL     1     -14.899   7.695   4.160  1.00  0.00    -0.022 A 
HETATM   28  C17 UNL     1     -12.972   7.919   3.028  1.00  0.00     0.042 A 
HETATM   29  H13 UNL     1     -11.600   7.326   4.634  1.00  0.00     0.166 HD
HETATM   30  C18 UNL     1     -12.174   8.211   1.906  1.00  0.00     0.062 C 
HETATM   31  C20 UNL     1     -14.373   8.051   2.937  1.00  0.00    -0.013 A 
HETATM   32  C19 UNL     1     -11.090   7.467   1.421  1.00  0.00     0.066 A 
BRANCH   8  33
HETATM   33  C6  UNL     1      -8.489   6.076  -0.768  1.00  0.00     0.151 C 
BRANCH  33  34
HETATM   34  C7  UNL     1      -7.074   6.348  -0.421  1.00  0.00     0.143 C 
HETATM   35  O3  UNL     1      -6.316   5.394  -0.161  1.00  0.00    -0.650 OA
BRANCH  34  36
HETATM   36  O4  UNL     1      -6.646   7.656  -0.399  1.00  0.00    -0.776 OA
HETATM   37  H8  UNL     1      -5.656   7.843  -0.241  1.00  0.00     0.167 HD
ENDBRANCH  34  36
ENDBRANCH  33  34
ENDBRANCH   8  33
BRANCH  31  38
HETATM   38  C21 UNL     1     -15.184   8.471   1.727  1.00  0.00     0.151 C 
BRANCH  38  39
HETATM   39  C22 UNL     1     -15.653   7.230   1.069  1.00  0.00     0.143 C 
HETATM   40  O5  UNL     1     -16.879   6.995   1.012  1.00  0.00    -0.650 OA
BRANCH  39  41
HETATM   41  O6  UNL     1     -14.792   6.301   0.503  1.00  0.00    -0.776 OA
HETATM   42  H17 UNL     1     -15.143   5.540  -0.092  1.00  0.00     0.167 HD
ENDBRANCH  39  41
ENDBRANCH  38  39
ENDBRANCH  31  38
BRANCH  27  43
HETATM   43  C24 UNL     1     -16.347   7.695   4.501  1.00  0.00     0.052 C 
BRANCH  43  44
HETATM   44  C25 UNL     1     -16.938   6.352   4.419  1.00  0.00     0.115 C 
BRANCH  44  45
HETATM   45  C26 UNL     1     -18.391   6.203   4.446  1.00  0.00     0.139 C 
HETATM   46  O7  UNL     1     -19.284   7.002   4.188  1.00  0.00    -0.650 OA
BRANCH  45  47
HETATM   47  O8  UNL     1     -18.839   4.911   4.840  1.00  0.00    -0.776 OA
HETATM   48  H22 UNL     1     -18.421   4.398   5.576  1.00  0.00     0.167 HD
ENDBRANCH  45  47
ENDBRANCH  44  45
ENDBRANCH  43  44
ENDBRANCH  27  43
BRANCH  24  49
HETATM   49  C28 UNL     1     -14.800   5.238   9.012  1.00  0.00     0.151 C 
BRANCH  49  50
HETATM   50  C29 UNL     1     -14.532   6.262  10.051  1.00  0.00     0.143 C 
HETATM   51  O9  UNL     1     -14.583   7.471   9.730  1.00  0.00    -0.650 OA
BRANCH  50  52
HETATM   52  O10 UNL     1     -14.228   5.948  11.363  1.00  0.00    -0.776 OA
HETATM   53  H25 UNL     1     -13.262   5.979  11.717  1.00  0.00     0.167 HD
ENDBRANCH  50  52
ENDBRANCH  49  50
ENDBRANCH  24  49
BRANCH  21  54
HETATM   54  C31 UNL     1     -12.512   3.163   9.314  1.00  0.00     0.052 C 
BRANCH  54  55
HETATM   55  C32 UNL     1     -11.481   3.457  10.344  1.00  0.00     0.115 C 
BRANCH  55  56
HETATM   56  C33 UNL     1     -12.129   3.180  11.678  1.00  0.00     0.139 C 
HETATM   57  O11 UNL     1     -11.434   2.973  12.704  1.00  0.00    -0.650 OA
BRANCH  56  58
HETATM   58  O12 UNL     1     -13.510   3.144  11.827  1.00  0.00    -0.776 OA
HETATM   59  H30 UNL     1     -13.935   2.216  11.748  1.00  0.00     0.167 HD
ENDBRANCH  56  58
ENDBRANCH  55  56
ENDBRANCH  54  55
ENDBRANCH  21  54
BRANCH  18  60
HETATM   60  C35 UNL     1      -7.488   3.867   6.959  1.00  0.00     0.151 C 
BRANCH  60  61
HETATM   61  C36 UNL     1      -6.969   2.504   6.828  1.00  0.00     0.143 C 
HETATM   62  O13 UNL     1      -5.729   2.293   6.940  1.00  0.00    -0.650 OA
BRANCH  61  63
HETATM   63  O14 UNL     1      -7.787   1.408   6.586  1.00  0.00    -0.776 OA
HETATM   64  H33 UNL     1      -8.696   1.382   7.016  1.00  0.00     0.167 HD
ENDBRANCH  61  63
ENDBRANCH  60  61
ENDBRANCH  18  60
BRANCH  14  65
HETATM   65  C38 UNL     1      -6.376   4.678   4.303  1.00  0.00     0.052 C 
BRANCH  65  66
HETATM   66  C39 UNL     1      -6.016   6.131   4.412  1.00  0.00     0.115 C 
BRANCH  66  67
HETATM   67  C40 UNL     1      -5.534   6.601   3.059  1.00  0.00     0.139 C 
HETATM   68  O15 UNL     1      -5.896   7.719   2.608  1.00  0.00    -0.650 OA
BRANCH  67  69
HETATM   69  O16 UNL     1      -4.700   5.820   2.308  1.00  0.00    -0.776 OA
HETATM   70  H38 UNL     1      -3.734   5.685   2.556  1.00  0.00     0.167 HD
ENDBRANCH  67  69
ENDBRANCH  66  67
ENDBRANCH  65  66
ENDBRANCH  14  65
ENDBRANCH   6   7
ENDBRANCH   5   6
ENDBRANCH   2   5
TORSDOF 28
ENDMDL
MODEL 20
REMARK VINA RESULT:      -6.8     18.393     21.802
REMARK  28 active torsions:
REMARK  status: ('A' for Active; 'I' for Inactive)
REMARK    1  A    between atoms: C1_2  and  O2_3 
REMARK    2  A    between atoms: C1_2  and  C2_4 
REMARK    3  A    between atoms: C2_4  and  C3_5 
REMARK    4  A    between atoms: C3_5  and  C4_6 
REMARK    5  A    between atoms: C5_7  and  C6_8 
REMARK    6  A    between atoms: C6_8  and  C7_9 
REMARK    7  A    between atoms: C7_9  and  O4_11 
REMARK    8  A    between atoms: C20_28  and  C21_29 
REMARK    9  A    between atoms: C21_29  and  C22_30 
REMARK   10  A    between atoms: C22_30  and  O6_32 
REMARK   11  A    between atoms: C23_33  and  C24_34 
REMARK   12  A    between atoms: C24_34  and  C25_35 
REMARK   13  A    between atoms: C25_35  and  C26_36 
REMARK   14  A    between atoms: C26_36  and  O8_38 
REMARK   15  A    between atoms: C27_39  and  C28_40 
REMARK   16  A    between atoms: C28_40  and  C29_41 
REMARK   17  A    between atoms: C29_41  and  O10_43 
REMARK   18  A    between atoms: C30_44  and  C31_45 
REMARK   19  A    between atoms: C31_45  and  C32_46 
REMARK   20  A    between atoms: C32_46  and  C33_47 
REMARK   21  A    between atoms: C33_47  and  O12_49 
REMARK   22  A    between atoms: C34_50  and  C35_51 
REMARK   23  A    between atoms: C35_51  and  C36_52 
REMARK   24  A    between atoms: C36_52  and  O14_54 
REMARK   25  A    between atoms: C37_55  and  C38_56 
REMARK   26  A    between atoms: C38_56  and  C39_57 
REMARK   27  A    between atoms: C39_57  and  C40_58 
REMARK   28  A    between atoms: C40_58  and  O16_60 
ROOT
HETATM    1  O1  UNL     1     -19.428   9.733   3.691  1.00  0.00    -0.650 OA
HETATM    2  C1  UNL     1     -18.882   8.681   3.338  1.00  0.00     0.139 C 
ENDROOT
BRANCH   2   3
HETATM    3  O2  UNL     1     -19.440   7.999   2.254  1.00  0.00    -0.776 OA
HETATM    4  H1  UNL     1     -20.077   8.441   1.601  1.00  0.00     0.167 HD
ENDBRANCH   2   3
BRANCH   2   5
HETATM    5  C2  UNL     1     -17.685   8.130   4.003  1.00  0.00     0.115 C 
BRANCH   5   6
HETATM    6  C3  UNL     1     -17.234   6.820   3.470  1.00  0.00     0.052 C 
BRANCH   6   7
HETATM    7  C4  UNL     1     -15.806   6.880   3.057  1.00  0.00    -0.020 A 
HETATM    8  C5  UNL     1     -15.319   7.046   1.825  1.00  0.00    -0.011 A 
HETATM    9  C8  UNL     1     -13.876   7.047   1.878  1.00  0.00     0.067 A 
HETATM   10  C9  UNL     1     -12.863   7.160   0.901  1.00  0.00     0.062 C 
HETATM   11  N4  UNL     1     -13.529   6.881   3.150  1.00  0.00    -0.248 NA
HETATM   12  C10 UNL     1     -11.499   7.000   1.137  1.00  0.00     0.041 A 
HETATM   13  N1  UNL     1     -10.800   6.156   1.919  1.00  0.00    -0.355 N 
HETATM   14  C37 UNL     1     -10.610   7.896   0.501  1.00  0.00    -0.022 A 
HETATM   15  C11 UNL     1      -9.501   6.488   1.807  1.00  0.00     0.042 A 
HETATM   16  H10 UNL     1     -11.218   5.314   2.522  1.00  0.00     0.166 HD
HETATM   17  C12 UNL     1      -8.337   6.003   2.406  1.00  0.00     0.062 C 
HETATM   18  C34 UNL     1      -9.371   7.578   0.918  1.00  0.00    -0.013 A 
HETATM   19  C13 UNL     1      -8.211   5.654   3.764  1.00  0.00     0.066 A 
HETATM   20  N2  UNL     1      -9.275   5.796   4.567  1.00  0.00    -0.248 NA
HETATM   21  C30 UNL     1      -7.132   5.126   4.561  1.00  0.00    -0.020 A 
HETATM   22  C14 UNL     1      -8.956   5.399   5.812  1.00  0.00     0.067 A 
HETATM   23  C15 UNL     1      -9.934   5.460   6.813  1.00  0.00     0.062 C 
HETATM   24  C27 UNL     1      -7.564   4.963   5.822  1.00  0.00    -0.011 A 
HETATM   25  C16 UNL     1     -11.327   5.604   6.638  1.00  0.00     0.041 A 
HETATM   26  N3  UNL     1     -12.016   6.347   5.763  1.00  0.00    -0.355 N 
HETATM   27  C23 UNL     1     -12.206   4.838   7.444  1.00  0.00    -0.022 A 
HETATM   28  C17 UNL     1     -13.317   6.100   5.954  1.00  0.00     0.042 A 
HETATM   29  H13 UNL     1     -11.587   7.072   5.020  1.00  0.00     0.166 HD
HETATM   30  C18 UNL     1     -14.460   6.599   5.301  1.00  0.00     0.062 C 
HETATM   31  C20 UNL     1     -13.468   5.161   6.996  1.00  0.00    -0.013 A 
HETATM   32  C19 UNL     1     -14.638   6.773   3.923  1.00  0.00     0.066 A 
BRANCH   8  33
HETATM   33  C6  UNL     1     -16.164   7.209   0.609  1.00  0.00     0.151 C 
BRANCH  33  34
HETATM   34  C7  UNL     1     -16.385   8.627   0.241  1.00  0.00     0.143 C 
HETATM   35  O3  UNL     1     -17.544   9.084   0.242  1.00  0.00    -0.650 OA
BRANCH  34  36
HETATM   36  O4  UNL     1     -15.291   9.394  -0.093  1.00  0.00    -0.776 OA
HETATM   37  H8  UNL     1     -15.375  10.051  -0.868  1.00  0.00     0.167 HD
ENDBRANCH  34  36
ENDBRANCH  33  34
ENDBRANCH   8  33
BRANCH  31  38
HETATM   38  C21 UNL     1     -14.760   4.571   7.527  1.00  0.00     0.151 C 
BRANCH  38  39
HETATM   39  C22 UNL     1     -15.196   5.429   8.653  1.00  0.00     0.143 C 
HETATM   40  O5  UNL     1     -14.926   5.084   9.823  1.00  0.00    -0.650 OA
BRANCH  39  41
HETATM   41  O6  UNL     1     -15.896   6.613   8.476  1.00  0.00    -0.776 OA
HETATM   42  H17 UNL     1     -15.632   7.286   7.745  1.00  0.00     0.167 HD
ENDBRANCH  39  41
ENDBRANCH  38  39
ENDBRANCH  31  38
BRANCH  27  43
HETATM   43  C24 UNL     1     -11.906   3.881   8.542  1.00  0.00     0.052 C 
BRANCH  43  44
HETATM   44  C25 UNL     1     -11.560   2.545   8.037  1.00  0.00     0.115 C 
BRANCH  44  45
HETATM   45  C26 UNL     1     -10.202   2.039   8.215  1.00  0.00     0.139 C 
HETATM   46  O7  UNL     1      -9.329   2.348   9.019  1.00  0.00    -0.650 OA
BRANCH  45  47
HETATM   47  O8  UNL     1      -9.833   1.017   7.296  1.00  0.00    -0.776 OA
HETATM   48  H22 UNL     1      -9.624   0.091   7.577  1.00  0.00     0.167 HD
ENDBRANCH  45  47
ENDBRANCH  44  45
ENDBRANCH  43  44
ENDBRANCH  27  43
BRANCH  24  49
HETATM   49  C28 UNL     1      -6.800   4.438   6.997  1.00  0.00     0.151 C 
BRANCH  49  50
HETATM   50  C29 UNL     1      -6.722   2.957   6.960  1.00  0.00     0.143 C 
HETATM   51  O9  UNL     1      -7.423   2.340   6.126  1.00  0.00    -0.650 OA
BRANCH  50  52
HETATM   52  O10 UNL     1      -5.912   2.220   7.805  1.00  0.00    -0.776 OA
HETATM   53  H25 UNL     1      -5.513   2.625   8.662  1.00  0.00     0.167 HD
ENDBRANCH  50  52
ENDBRANCH  49  50
ENDBRANCH  24  49
BRANCH  21  54
HETATM   54  C31 UNL     1      -5.757   4.787   4.095  1.00  0.00     0.052 C 
BRANCH  54  55
HETATM   55  C32 UNL     1      -5.065   5.878   3.361  1.00  0.00     0.115 C 
BRANCH  55  56
HETATM   56  C33 UNL     1      -4.876   6.999   4.354  1.00  0.00     0.139 C 
HETATM   57  O11 UNL     1      -4.180   6.837   5.386  1.00  0.00    -0.650 OA
BRANCH  56  58
HETATM   58  O12 UNL     1      -5.460   8.245   4.168  1.00  0.00    -0.776 OA
HETATM   59  H30 UNL     1      -5.904   8.650   4.997  1.00  0.00     0.167 HD
ENDBRANCH  56  58
ENDBRANCH  55  56
ENDBRANCH  54  55
ENDBRANCH  21  54
BRANCH  18  60
HETATM   60  C35 UNL     1      -8.140   8.294   0.448  1.00  0.00     0.151 C 
BRANCH  60  61
HETATM   61  C36 UNL     1      -7.738   7.695  -0.826  1.00  0.00     0.143 C 
HETATM   62  O13 UNL     1      -7.746   6.438  -0.957  1.00  0.00    -0.650 OA
BRANCH  61  63
HETATM   63  O14 UNL     1      -7.344   8.451  -1.921  1.00  0.00    -0.776 OA
HETATM   64  H33 UNL     1      -6.360   8.603  -2.072  1.00  0.00     0.167 HD
ENDBRANCH  61  63
ENDBRANCH  60  61
ENDBRANCH  18  60
BRANCH  14  65
HETATM   65  C38 UNL     1     -10.896   8.999  -0.477  1.00  0.00     0.052 C 
BRANCH  65  66
HETATM   66  C39 UNL     1     -11.239   8.405  -1.812  1.00  0.00     0.115 C 
BRANCH  66  67
HETATM   67  C40 UNL     1     -10.486   9.169  -2.876  1.00  0.00     0.139 C 
HETATM   68  O15 UNL     1      -9.688  10.088  -2.555  1.00  0.00    -0.650 OA
BRANCH  67  69
HETATM   69  O16 UNL     1     -10.660   8.873  -4.199  1.00  0.00    -0.776 OA
HETATM   70  H38 UNL     1     -11.339   9.354  -4.765  1.00  0.00     0.167 HD
ENDBRANCH  67  69
ENDBRANCH  66  67
ENDBRANCH  65  66
ENDBRANCH  14  65
ENDBRANCH   6   7
ENDBRANCH   5   6
ENDBRANCH   2   5
TORSDOF 28
ENDMDL
