MODEL 1
REMARK VINA RESULT:     -10.0      0.000      0.000
REMARK  16 active torsions:
REMARK  status: ('A' for Active; 'I' for Inactive)
REMARK    1  A    between atoms: C_6  and  C_7 
REMARK    2  A    between atoms: C_7  and  C_8 
REMARK    3  A    between atoms: C_8  and  C_9 
REMARK    4  A    between atoms: C_9  and  O_11 
REMARK    5  A    between atoms: C_16  and  C_17 
REMARK    6  A    between atoms: C_17  and  C_18 
REMARK    7  A    between atoms: C_18  and  C_19 
REMARK    8  A    between atoms: C_19  and  O_21 
REMARK    9  A    between atoms: C_28  and  C_29 
REMARK   10  A    between atoms: C_29  and  C_30 
REMARK   11  A    between atoms: C_30  and  C_31 
REMARK   12  A    between atoms: C_31  and  O_33 
REMARK   13  A    between atoms: C_42  and  C_43 
REMARK   14  A    between atoms: C_43  and  C_44 
REMARK   15  A    between atoms: C_44  and  C_45 
REMARK   16  A    between atoms: C_45  and  O_47 
ROOT
HETATM    1  C   UNK     0       4.804   3.510  46.225  0.00  0.00     0.051 C 
HETATM    2  C   UNK     0       4.878   4.951  45.763  0.00  0.00    -0.031 A 
HETATM    3  C   UNK     0       4.875   5.464  44.475  0.00  0.00     0.021 A 
HETATM    4  N   UNK     0       4.989   6.812  44.537  0.00  0.00    -0.361 N 
HETATM    5  C   UNK     0       5.055   7.170  45.836  0.00  0.00     0.022 A 
HETATM    6  C   UNK     0       4.991   6.031  46.630  0.00  0.00    -0.027 A 
HETATM    7  C   UNK     0       5.093   8.537  46.445  0.00  0.00     0.115 C 
HETATM    8  C   UNK     0       4.160   9.576  45.848  0.00  0.00     0.021 A 
HETATM    9  N   UNK     0       2.923   9.404  45.356  0.00  0.00    -0.361 N 
HETATM   10  C   UNK     0       2.508  10.584  44.847  0.00  0.00     0.022 A 
HETATM   11  C   UNK     0       3.501  11.543  45.024  0.00  0.00    -0.027 A 
HETATM   12  C   UNK     0       4.544  10.915  45.654  0.00  0.00    -0.031 A 
HETATM   13  C   UNK     0       5.846  11.571  46.056  0.00  0.00     0.051 C 
HETATM   14  C   UNK     0       1.186  10.839  44.128  0.00  0.00     0.115 C 
HETATM   15  C   UNK     0       1.004  10.016  42.863  0.00  0.00     0.021 A 
HETATM   16  N   UNK     0       1.010   8.675  42.748  0.00  0.00    -0.361 N 
HETATM   17  C   UNK     0       0.888   8.344  41.460  0.00  0.00     0.022 A 
HETATM   18  C   UNK     0       0.788   9.527  40.701  0.00  0.00    -0.027 A 
HETATM   19  C   UNK     0       0.860  10.567  41.591  0.00  0.00    -0.031 A 
HETATM   20  C   UNK     0       0.756  12.028  41.193  0.00  0.00     0.051 C 
HETATM   21  C   UNK     0       0.912   6.985  40.800  0.00  0.00     0.115 C 
HETATM   22  C   UNK     0       1.802   5.928  41.410  0.00  0.00     0.022 A 
HETATM   23  N   UNK     0       3.036   6.071  41.911  0.00  0.00    -0.361 N 
HETATM   24  C   UNK     0       3.399   4.904  42.482  0.00  0.00     0.021 A 
HETATM   25  C   UNK     0       2.378   3.985  42.336  0.00  0.00    -0.031 A 
HETATM   26  C   UNK     0       2.330   2.536  42.773  0.00  0.00     0.051 C 
HETATM   27  C   UNK     0       1.345   4.617  41.652  0.00  0.00    -0.027 A 
HETATM   28  C   UNK     0       4.669   4.605  43.260  0.00  0.00     0.115 C 
HETATM   29  H   UNK     0       5.062   7.497  43.661  0.00  0.00     0.165 HD
HETATM   30  H   UNK     0       2.321   8.465  45.411  0.00  0.00     0.165 HD
HETATM   31  H   UNK     0       1.053   7.944  43.597  0.00  0.00     0.165 HD
HETATM   32  H   UNK     0       3.681   6.984  41.829  0.00  0.00     0.165 HD
ENDROOT
BRANCH   6  33
HETATM   33  C   UNK     0       5.031   5.891  48.131  0.00  0.00     0.051 C 
BRANCH  33  34
HETATM   34  C   UNK     0       6.445   6.028  48.643  0.00  0.00     0.114 C 
BRANCH  34  35
HETATM   35  C   UNK     0       6.669   4.935  49.633  0.00  0.00     0.139 C 
HETATM   36  O   UNK     0       6.885   5.211  50.849  0.00  0.00    -0.650 OA
BRANCH  35  37
HETATM   37  O   UNK     0       6.650   3.590  49.282  0.00  0.00    -0.776 OA
HETATM   38  H   UNK     0       6.847   3.280  48.344  0.00  0.00     0.167 HD
ENDBRANCH  35  37
ENDBRANCH  34  35
ENDBRANCH  33  34
ENDBRANCH   6  33
BRANCH  27  39
HETATM   39  C   UNK     0       0.096   3.918  41.245  0.00  0.00     0.051 C 
BRANCH  39  40
HETATM   40  C   UNK     0      -1.174   4.386  41.801  0.00  0.00     0.114 C 
BRANCH  40  41
HETATM   41  C   UNK     0      -1.551   4.139  43.174  0.00  0.00     0.139 C 
HETATM   42  O   UNK     0      -2.543   4.648  43.713  0.00  0.00    -0.650 OA
BRANCH  41  43
HETATM   43  O   UNK     0      -0.751   3.266  43.965  0.00  0.00    -0.776 OA
HETATM   44  H   UNK     0       0.231   3.514  44.001  0.00  0.00     0.167 HD
ENDBRANCH  41  43
ENDBRANCH  40  41
ENDBRANCH  39  40
ENDBRANCH  27  39
BRANCH  11  45
HETATM   45  C   UNK     0       3.489  12.995  44.628  0.00  0.00     0.051 C 
BRANCH  45  46
HETATM   46  C   UNK     0       3.233  13.928  45.755  0.00  0.00     0.114 C 
BRANCH  46  47
HETATM   47  C   UNK     0       4.128  15.106  45.564  0.00  0.00     0.139 C 
HETATM   48  O   UNK     0       3.633  16.240  45.619  0.00  0.00    -0.650 OA
BRANCH  47  49
HETATM   49  O   UNK     0       5.469  14.939  45.332  0.00  0.00    -0.776 OA
HETATM   50  H   UNK     0       6.182  15.255  46.001  0.00  0.00     0.167 HD
ENDBRANCH  47  49
ENDBRANCH  46  47
ENDBRANCH  45  46
ENDBRANCH  11  45
BRANCH  18  51
HETATM   51  C   UNK     0       0.611   9.658  39.210  0.00  0.00     0.051 C 
BRANCH  51  52
HETATM   52  C   UNK     0       2.012   9.682  38.616  0.00  0.00     0.114 C 
BRANCH  52  53
HETATM   53  C   UNK     0       1.998   9.407  37.166  0.00  0.00     0.139 C 
HETATM   54  O   UNK     0       2.385   8.308  36.738  0.00  0.00    -0.650 OA
BRANCH  53  55
HETATM   55  O   UNK     0       1.558  10.375  36.295  0.00  0.00    -0.776 OA
HETATM   56  H   UNK     0       2.042  10.701  35.492  0.00  0.00     0.167 HD
ENDBRANCH  53  55
ENDBRANCH  52  53
ENDBRANCH  51  52
ENDBRANCH  18  51
TORSDOF 16
ENDMDL
MODEL 2
REMARK VINA RESULT:      -9.2      2.252      7.486
REMARK  16 active torsions:
REMARK  status: ('A' for Active; 'I' for Inactive)
REMARK    1  A    between atoms: C_6  and  C_7 
REMARK    2  A    between atoms: C_7  and  C_8 
REMARK    3  A    between atoms: C_8  and  C_9 
REMARK    4  A    between atoms: C_9  and  O_11 
REMARK    5  A    between atoms: C_16  and  C_17 
REMARK    6  A    between atoms: C_17  and  C_18 
REMARK    7  A    between atoms: C_18  and  C_19 
REMARK    8  A    between atoms: C_19  and  O_21 
REMARK    9  A    between atoms: C_28  and  C_29 
REMARK   10  A    between atoms: C_29  and  C_30 
REMARK   11  A    between atoms: C_30  and  C_31 
REMARK   12  A    between atoms: C_31  and  O_33 
REMARK   13  A    between atoms: C_42  and  C_43 
REMARK   14  A    between atoms: C_43  and  C_44 
REMARK   15  A    between atoms: C_44  and  C_45 
REMARK   16  A    between atoms: C_45  and  O_47 
ROOT
HETATM    1  C   UNK     0       4.679  12.365  46.043  0.00  0.00     0.051 C 
HETATM    2  C   UNK     0       4.379  10.884  46.158  0.00  0.00    -0.031 A 
HETATM    3  C   UNK     0       3.194  10.205  45.922  0.00  0.00     0.021 A 
HETATM    4  N   UNK     0       3.380   8.889  46.183  0.00  0.00    -0.361 N 
HETATM    5  C   UNK     0       4.660   8.714  46.572  0.00  0.00     0.022 A 
HETATM    6  C   UNK     0       5.313   9.942  46.571  0.00  0.00    -0.027 A 
HETATM    7  C   UNK     0       5.395   7.447  46.883  0.00  0.00     0.115 C 
HETATM    8  C   UNK     0       5.154   6.273  45.951  0.00  0.00     0.021 A 
HETATM    9  N   UNK     0       4.948   6.286  44.625  0.00  0.00    -0.361 N 
HETATM   10  C   UNK     0       4.686   5.022  44.228  0.00  0.00     0.022 A 
HETATM   11  C   UNK     0       4.735   4.170  45.328  0.00  0.00    -0.027 A 
HETATM   12  C   UNK     0       5.029   4.951  46.416  0.00  0.00    -0.031 A 
HETATM   13  C   UNK     0       5.187   4.451  47.834  0.00  0.00     0.051 C 
HETATM   14  C   UNK     0       4.330   4.577  42.813  0.00  0.00     0.115 C 
HETATM   15  C   UNK     0       3.058   5.209  42.271  0.00  0.00     0.021 A 
HETATM   16  N   UNK     0       2.793   6.519  42.115  0.00  0.00    -0.361 N 
HETATM   17  C   UNK     0       1.540   6.665  41.677  0.00  0.00     0.022 A 
HETATM   18  C   UNK     0       0.965   5.387  41.531  0.00  0.00    -0.027 A 
HETATM   19  C   UNK     0       1.925   4.484  41.905  0.00  0.00    -0.031 A 
HETATM   20  C   UNK     0       1.731   2.979  41.863  0.00  0.00     0.051 C 
HETATM   21  C   UNK     0       0.742   7.922  41.415  0.00  0.00     0.115 C 
HETATM   22  C   UNK     0       1.004   9.113  42.307  0.00  0.00     0.022 A 
HETATM   23  N   UNK     0       1.216   9.128  43.630  0.00  0.00    -0.361 N 
HETATM   24  C   UNK     0       1.551  10.384  43.990  0.00  0.00     0.021 A 
HETATM   25  C   UNK     0       1.544  11.199  42.874  0.00  0.00    -0.031 A 
HETATM   26  C   UNK     0       1.812  12.686  42.778  0.00  0.00     0.051 C 
HETATM   27  C   UNK     0       1.196  10.408  41.785  0.00  0.00    -0.027 A 
HETATM   28  C   UNK     0       1.971  10.876  45.364  0.00  0.00     0.115 C 
HETATM   29  H   UNK     0       2.595   8.100  46.128  0.00  0.00     0.165 HD
HETATM   30  H   UNK     0       5.035   7.178  43.958  0.00  0.00     0.165 HD
HETATM   31  H   UNK     0       3.520   7.358  42.272  0.00  0.00     0.165 HD
HETATM   32  H   UNK     0       1.090   8.261  44.329  0.00  0.00     0.165 HD
ENDROOT
BRANCH   6  33
HETATM   33  C   UNK     0       6.737  10.283  46.929  0.00  0.00     0.051 C 
BRANCH  33  34
HETATM   34  C   UNK     0       7.706   9.439  46.136  0.00  0.00     0.114 C 
BRANCH  34  35
HETATM   35  C   UNK     0       8.759   8.964  47.079  0.00  0.00     0.139 C 
HETATM   36  O   UNK     0       9.792   9.665  47.286  0.00  0.00    -0.650 OA
BRANCH  35  37
HETATM   37  O   UNK     0       8.664   7.758  47.763  0.00  0.00    -0.776 OA
HETATM   38  H   UNK     0       7.940   7.086  47.564  0.00  0.00     0.167 HD
ENDBRANCH  35  37
ENDBRANCH  34  35
ENDBRANCH  33  34
ENDBRANCH   6  33
BRANCH  27  39
HETATM   39  C   UNK     0       1.015  10.953  40.412  0.00  0.00     0.051 C 
BRANCH  39  40
HETATM   40  C   UNK     0       2.133  10.858  39.474  0.00  0.00     0.114 C 
BRANCH  40  41
HETATM   41  C   UNK     0       2.107   9.973  38.331  0.00  0.00     0.139 C 
HETATM   42  O   UNK     0       2.252   8.746  38.413  0.00  0.00    -0.650 OA
BRANCH  41  43
HETATM   43  O   UNK     0       1.905  10.525  37.034  0.00  0.00    -0.776 OA
HETATM   44  H   UNK     0       2.699  11.036  36.668  0.00  0.00     0.167 HD
ENDBRANCH  41  43
ENDBRANCH  40  41
ENDBRANCH  39  40
ENDBRANCH  27  39
BRANCH  11  45
HETATM   45  C   UNK     0       4.520   2.681  45.375  0.00  0.00     0.051 C 
BRANCH  45  46
HETATM   46  C   UNK     0       5.194   2.008  46.515  0.00  0.00     0.114 C 
BRANCH  46  47
HETATM   47  C   UNK     0       4.626   0.633  46.613  0.00  0.00     0.139 C 
HETATM   48  O   UNK     0       5.403  -0.332  46.585  0.00  0.00    -0.650 OA
BRANCH  47  49
HETATM   49  O   UNK     0       3.273   0.437  46.731  0.00  0.00    -0.776 OA
HETATM   50  H   UNK     0       2.592   1.133  46.405  0.00  0.00     0.167 HD
ENDBRANCH  47  49
ENDBRANCH  46  47
ENDBRANCH  45  46
ENDBRANCH  11  45
BRANCH  18  51
HETATM   51  C   UNK     0      -0.419   5.045  41.042  0.00  0.00     0.051 C 
BRANCH  51  52
HETATM   52  C   UNK     0      -1.386   5.591  42.082  0.00  0.00     0.114 C 
BRANCH  52  53
HETATM   53  C   UNK     0      -1.873   4.533  42.988  0.00  0.00     0.139 C 
HETATM   54  O   UNK     0      -1.066   3.768  43.540  0.00  0.00    -0.650 OA
BRANCH  53  55
HETATM   55  O   UNK     0      -3.221   4.398  43.213  0.00  0.00    -0.776 OA
HETATM   56  H   UNK     0      -3.937   4.974  42.836  0.00  0.00     0.167 HD
ENDBRANCH  53  55
ENDBRANCH  52  53
ENDBRANCH  51  52
ENDBRANCH  18  51
TORSDOF 16
ENDMDL
MODEL 3
REMARK VINA RESULT:      -9.2      7.965     13.845
REMARK  16 active torsions:
REMARK  status: ('A' for Active; 'I' for Inactive)
REMARK    1  A    between atoms: C_6  and  C_7 
REMARK    2  A    between atoms: C_7  and  C_8 
REMARK    3  A    between atoms: C_8  and  C_9 
REMARK    4  A    between atoms: C_9  and  O_11 
REMARK    5  A    between atoms: C_16  and  C_17 
REMARK    6  A    between atoms: C_17  and  C_18 
REMARK    7  A    between atoms: C_18  and  C_19 
REMARK    8  A    between atoms: C_19  and  O_21 
REMARK    9  A    between atoms: C_28  and  C_29 
REMARK   10  A    between atoms: C_29  and  C_30 
REMARK   11  A    between atoms: C_30  and  C_31 
REMARK   12  A    between atoms: C_31  and  O_33 
REMARK   13  A    between atoms: C_42  and  C_43 
REMARK   14  A    between atoms: C_43  and  C_44 
REMARK   15  A    between atoms: C_44  and  C_45 
REMARK   16  A    between atoms: C_45  and  O_47 
ROOT
HETATM    1  C   UNK     0       6.874   4.914  28.540  0.00  0.00     0.051 C 
HETATM    2  C   UNK     0       6.592   4.481  29.964  0.00  0.00    -0.031 A 
HETATM    3  C   UNK     0       6.422   5.254  31.102  0.00  0.00     0.021 A 
HETATM    4  N   UNK     0       6.221   4.438  32.164  0.00  0.00    -0.361 N 
HETATM    5  C   UNK     0       6.250   3.162  31.727  0.00  0.00     0.022 A 
HETATM    6  C   UNK     0       6.483   3.152  30.355  0.00  0.00    -0.027 A 
HETATM    7  C   UNK     0       5.991   1.893  32.476  0.00  0.00     0.115 C 
HETATM    8  C   UNK     0       4.820   1.899  33.443  0.00  0.00     0.021 A 
HETATM    9  N   UNK     0       3.640   2.526  33.322  0.00  0.00    -0.361 N 
HETATM   10  C   UNK     0       2.942   2.328  34.461  0.00  0.00     0.022 A 
HETATM   11  C   UNK     0       3.689   1.544  35.335  0.00  0.00    -0.027 A 
HETATM   12  C   UNK     0       4.874   1.270  34.700  0.00  0.00    -0.031 A 
HETATM   13  C   UNK     0       6.000   0.439  35.271  0.00  0.00     0.051 C 
HETATM   14  C   UNK     0       1.571   2.912  34.791  0.00  0.00     0.115 C 
HETATM   15  C   UNK     0       1.538   4.431  34.814  0.00  0.00     0.021 A 
HETATM   16  N   UNK     0       1.853   5.275  33.813  0.00  0.00    -0.361 N 
HETATM   17  C   UNK     0       1.763   6.532  34.255  0.00  0.00     0.022 A 
HETATM   18  C   UNK     0       1.361   6.506  35.605  0.00  0.00    -0.027 A 
HETATM   19  C   UNK     0       1.222   5.185  35.943  0.00  0.00    -0.031 A 
HETATM   20  C   UNK     0       0.765   4.706  37.309  0.00  0.00     0.051 C 
HETATM   21  C   UNK     0       2.078   7.833  33.553  0.00  0.00     0.115 C 
HETATM   22  C   UNK     0       3.213   7.831  32.556  0.00  0.00     0.022 A 
HETATM   23  N   UNK     0       4.397   7.212  32.648  0.00  0.00    -0.361 N 
HETATM   24  C   UNK     0       5.043   7.357  31.473  0.00  0.00     0.021 A 
HETATM   25  C   UNK     0       4.260   8.096  30.607  0.00  0.00    -0.031 A 
HETATM   26  C   UNK     0       4.568   8.552  29.196  0.00  0.00     0.051 C 
HETATM   27  C   UNK     0       3.083   8.411  31.278  0.00  0.00    -0.027 A 
HETATM   28  C   UNK     0       6.376   6.755  31.065  0.00  0.00     0.115 C 
HETATM   29  H   UNK     0       6.099   4.768  33.222  0.00  0.00     0.165 HD
HETATM   30  H   UNK     0       3.275   3.067  32.415  0.00  0.00     0.165 HD
HETATM   31  H   UNK     0       2.097   4.981  32.760  0.00  0.00     0.165 HD
HETATM   32  H   UNK     0       4.807   6.704  33.559  0.00  0.00     0.165 HD
ENDROOT
BRANCH   6  33
HETATM   33  C   UNK     0       6.611   1.992  29.402  0.00  0.00     0.051 C 
BRANCH  33  34
HETATM   34  C   UNK     0       7.983   1.367  29.500  0.00  0.00     0.114 C 
BRANCH  34  35
HETATM   35  C   UNK     0       7.802  -0.113  29.480  0.00  0.00     0.139 C 
HETATM   36  O   UNK     0       6.859  -0.648  30.132  0.00  0.00    -0.650 OA
BRANCH  35  37
HETATM   37  O   UNK     0       8.637  -0.960  28.761  0.00  0.00    -0.776 OA
HETATM   38  H   UNK     0       8.955  -0.736  27.832  0.00  0.00     0.167 HD
ENDBRANCH  35  37
ENDBRANCH  34  35
ENDBRANCH  33  34
ENDBRANCH   6  33
BRANCH  27  39
HETATM   39  C   UNK     0       2.017   9.265  30.687  0.00  0.00     0.051 C 
BRANCH  39  40
HETATM   40  C   UNK     0       2.020  10.694  30.999  0.00  0.00     0.114 C 
BRANCH  40  41
HETATM   41  C   UNK     0       0.925  11.565  30.633  0.00  0.00     0.139 C 
HETATM   42  O   UNK     0       0.562  12.531  31.318  0.00  0.00    -0.650 OA
BRANCH  41  43
HETATM   43  O   UNK     0       0.215  11.312  29.425  0.00  0.00    -0.776 OA
HETATM   44  H   UNK     0       0.795  10.997  28.657  0.00  0.00     0.167 HD
ENDBRANCH  41  43
ENDBRANCH  40  41
ENDBRANCH  39  40
ENDBRANCH  27  39
BRANCH  11  45
HETATM   45  C   UNK     0       3.324   1.060  36.712  0.00  0.00     0.051 C 
BRANCH  45  46
HETATM   46  C   UNK     0       3.013  -0.391  36.781  0.00  0.00     0.114 C 
BRANCH  46  47
HETATM   47  C   UNK     0       1.628  -0.571  36.258  0.00  0.00     0.139 C 
HETATM   48  O   UNK     0       1.472  -1.190  35.197  0.00  0.00    -0.650 OA
BRANCH  47  49
HETATM   49  O   UNK     0       0.549  -0.060  36.935  0.00  0.00    -0.776 OA
HETATM   50  H   UNK     0       0.582   0.138  37.942  0.00  0.00     0.167 HD
ENDBRANCH  47  49
ENDBRANCH  46  47
ENDBRANCH  45  46
ENDBRANCH  11  45
BRANCH  18  51
HETATM   51  C   UNK     0       1.103   7.677  36.518  0.00  0.00     0.051 C 
BRANCH  51  52
HETATM   52  C   UNK     0       2.326   7.796  37.415  0.00  0.00     0.114 C 
BRANCH  52  53
HETATM   53  C   UNK     0       1.958   8.141  38.802  0.00  0.00     0.139 C 
HETATM   54  O   UNK     0       2.708   8.858  39.483  0.00  0.00    -0.650 OA
BRANCH  53  55
HETATM   55  O   UNK     0       0.786   7.661  39.333  0.00  0.00    -0.776 OA
HETATM   56  H   UNK     0      -0.015   8.202  39.564  0.00  0.00     0.167 HD
ENDBRANCH  53  55
ENDBRANCH  52  53
ENDBRANCH  51  52
ENDBRANCH  18  51
TORSDOF 16
ENDMDL
MODEL 4
REMARK VINA RESULT:      -8.9     30.256     33.839
REMARK  16 active torsions:
REMARK  status: ('A' for Active; 'I' for Inactive)
REMARK    1  A    between atoms: C_6  and  C_7 
REMARK    2  A    between atoms: C_7  and  C_8 
REMARK    3  A    between atoms: C_8  and  C_9 
REMARK    4  A    between atoms: C_9  and  O_11 
REMARK    5  A    between atoms: C_16  and  C_17 
REMARK    6  A    between atoms: C_17  and  C_18 
REMARK    7  A    between atoms: C_18  and  C_19 
REMARK    8  A    between atoms: C_19  and  O_21 
REMARK    9  A    between atoms: C_28  and  C_29 
REMARK   10  A    between atoms: C_29  and  C_30 
REMARK   11  A    between atoms: C_30  and  C_31 
REMARK   12  A    between atoms: C_31  and  O_33 
REMARK   13  A    between atoms: C_42  and  C_43 
REMARK   14  A    between atoms: C_43  and  C_44 
REMARK   15  A    between atoms: C_44  and  C_45 
REMARK   16  A    between atoms: C_45  and  O_47 
ROOT
HETATM    1  C   UNK     0      34.854   2.053  46.806  0.00  0.00     0.051 C 
HETATM    2  C   UNK     0      34.764   0.548  46.655  0.00  0.00    -0.031 A 
HETATM    3  C   UNK     0      33.766  -0.221  46.077  0.00  0.00     0.021 A 
HETATM    4  N   UNK     0      34.093  -1.530  46.196  0.00  0.00    -0.361 N 
HETATM    5  C   UNK     0      35.281  -1.612  46.830  0.00  0.00     0.022 A 
HETATM    6  C   UNK     0      35.728  -0.330  47.134  0.00  0.00    -0.027 A 
HETATM    7  C   UNK     0      36.122  -2.814  47.124  0.00  0.00     0.115 C 
HETATM    8  C   UNK     0      36.251  -3.844  46.015  0.00  0.00     0.021 A 
HETATM    9  N   UNK     0      36.314  -3.641  44.690  0.00  0.00    -0.361 N 
HETATM   10  C   UNK     0      36.330  -4.847  44.082  0.00  0.00     0.022 A 
HETATM   11  C   UNK     0      36.287  -5.853  45.043  0.00  0.00    -0.027 A 
HETATM   12  C   UNK     0      36.237  -5.228  46.263  0.00  0.00    -0.031 A 
HETATM   13  C   UNK     0      36.184  -5.928  47.602  0.00  0.00     0.051 C 
HETATM   14  C   UNK     0      36.334  -5.097  42.577  0.00  0.00     0.115 C 
HETATM   15  C   UNK     0      35.115  -4.544  41.857  0.00  0.00     0.021 A 
HETATM   16  N   UNK     0      34.692  -3.266  41.822  0.00  0.00    -0.361 N 
HETATM   17  C   UNK     0      33.544  -3.203  41.143  0.00  0.00     0.022 A 
HETATM   18  C   UNK     0      33.209  -4.500  40.706  0.00  0.00    -0.027 A 
HETATM   19  C   UNK     0      34.201  -5.330  41.159  0.00  0.00    -0.031 A 
HETATM   20  C   UNK     0      34.248  -6.821  40.877  0.00  0.00     0.051 C 
HETATM   21  C   UNK     0      32.634  -2.025  40.881  0.00  0.00     0.115 C 
HETATM   22  C   UNK     0      32.530  -0.970  41.958  0.00  0.00     0.022 A 
HETATM   23  N   UNK     0      32.470  -1.143  43.285  0.00  0.00    -0.361 N 
HETATM   24  C   UNK     0      32.533   0.069  43.872  0.00  0.00     0.021 A 
HETATM   25  C   UNK     0      32.625   1.046  42.900  0.00  0.00    -0.031 A 
HETATM   26  C   UNK     0      32.679   2.551  43.063  0.00  0.00     0.051 C 
HETATM   27  C   UNK     0      32.625   0.405  41.666  0.00  0.00    -0.027 A 
HETATM   28  C   UNK     0      32.592   0.380  45.358  0.00  0.00     0.115 C 
HETATM   29  H   UNK     0      33.462  -2.388  45.866  0.00  0.00     0.165 HD
HETATM   30  H   UNK     0      36.397  -2.649  44.182  0.00  0.00     0.165 HD
HETATM   31  H   UNK     0      35.238  -2.383  42.244  0.00  0.00     0.165 HD
HETATM   32  H   UNK     0      32.339  -2.120  43.818  0.00  0.00     0.165 HD
ENDROOT
BRANCH   6  33
HETATM   33  C   UNK     0      36.984   0.117  47.838  0.00  0.00     0.051 C 
BRANCH  33  34
HETATM   34  C   UNK     0      36.654   0.752  49.168  0.00  0.00     0.114 C 
BRANCH  34  35
HETATM   35  C   UNK     0      37.472   1.994  49.285  0.00  0.00     0.139 C 
HETATM   36  O   UNK     0      36.907   3.125  49.340  0.00  0.00    -0.650 OA
BRANCH  35  37
HETATM   37  O   UNK     0      38.860   1.975  49.341  0.00  0.00    -0.776 OA
HETATM   38  H   UNK     0      39.418   2.754  49.031  0.00  0.00     0.167 HD
ENDBRANCH  35  37
ENDBRANCH  34  35
ENDBRANCH  33  34
ENDBRANCH   6  33
BRANCH  27  39
HETATM   39  C   UNK     0      32.640   1.139  40.372  0.00  0.00     0.051 C 
BRANCH  39  40
HETATM   40  C   UNK     0      31.507   0.968  39.463  0.00  0.00     0.114 C 
BRANCH  40  41
HETATM   41  C   UNK     0      31.653   0.373  38.153  0.00  0.00     0.139 C 
HETATM   42  O   UNK     0      32.727   0.329  37.538  0.00  0.00    -0.650 OA
BRANCH  41  43
HETATM   43  O   UNK     0      30.511  -0.196  37.521  0.00  0.00    -0.776 OA
HETATM   44  H   UNK     0      29.744   0.451  37.380  0.00  0.00     0.167 HD
ENDBRANCH  41  43
ENDBRANCH  40  41
ENDBRANCH  39  40
ENDBRANCH  27  39
BRANCH  11  45
HETATM   45  C   UNK     0      36.294  -7.345  44.845  0.00  0.00     0.051 C 
BRANCH  45  46
HETATM   46  C   UNK     0      34.963  -7.920  44.522  0.00  0.00     0.114 C 
BRANCH  46  47
HETATM   47  C   UNK     0      34.803  -9.152  45.346  0.00  0.00     0.139 C 
HETATM   48  O   UNK     0      34.752  -9.038  46.579  0.00  0.00    -0.650 OA
BRANCH  47  49
HETATM   49  O   UNK     0      34.716 -10.387  44.754  0.00  0.00    -0.776 OA
HETATM   50  H   UNK     0      35.051 -11.239  45.219  0.00  0.00     0.167 HD
ENDBRANCH  47  49
ENDBRANCH  46  47
ENDBRANCH  45  46
ENDBRANCH  11  45
BRANCH  18  51
HETATM   51  C   UNK     0      32.018  -4.921  39.885  0.00  0.00     0.051 C 
BRANCH  51  52
HETATM   52  C   UNK     0      32.459  -4.852  38.430  0.00  0.00     0.114 C 
BRANCH  52  53
HETATM   53  C   UNK     0      31.577  -3.980  37.630  0.00  0.00     0.139 C 
HETATM   54  O   UNK     0      30.794  -3.201  38.195  0.00  0.00    -0.650 OA
BRANCH  53  55
HETATM   55  O   UNK     0      31.626  -4.039  36.258  0.00  0.00    -0.776 OA
HETATM   56  H   UNK     0      31.368  -4.817  35.697  0.00  0.00     0.167 HD
ENDBRANCH  53  55
ENDBRANCH  52  53
ENDBRANCH  51  52
ENDBRANCH  18  51
TORSDOF 16
ENDMDL
MODEL 5
REMARK VINA RESULT:      -8.9     29.262     32.291
REMARK  16 active torsions:
REMARK  status: ('A' for Active; 'I' for Inactive)
REMARK    1  A    between atoms: C_6  and  C_7 
REMARK    2  A    between atoms: C_7  and  C_8 
REMARK    3  A    between atoms: C_8  and  C_9 
REMARK    4  A    between atoms: C_9  and  O_11 
REMARK    5  A    between atoms: C_16  and  C_17 
REMARK    6  A    between atoms: C_17  and  C_18 
REMARK    7  A    between atoms: C_18  and  C_19 
REMARK    8  A    between atoms: C_19  and  O_21 
REMARK    9  A    between atoms: C_28  and  C_29 
REMARK   10  A    between atoms: C_29  and  C_30 
REMARK   11  A    between atoms: C_30  and  C_31 
REMARK   12  A    between atoms: C_31  and  O_33 
REMARK   13  A    between atoms: C_42  and  C_43 
REMARK   14  A    between atoms: C_43  and  C_44 
REMARK   15  A    between atoms: C_44  and  C_45 
REMARK   16  A    between atoms: C_45  and  O_47 
ROOT
HETATM    1  C   UNK     0      33.236  -9.828  40.703  0.00  0.00     0.051 C 
HETATM    2  C   UNK     0      33.785  -8.518  41.228  0.00  0.00    -0.031 A 
HETATM    3  C   UNK     0      34.230  -7.407  40.529  0.00  0.00     0.021 A 
HETATM    4  N   UNK     0      34.664  -6.475  41.411  0.00  0.00    -0.361 N 
HETATM    5  C   UNK     0      34.499  -6.965  42.657  0.00  0.00     0.022 A 
HETATM    6  C   UNK     0      33.953  -8.242  42.579  0.00  0.00    -0.027 A 
HETATM    7  C   UNK     0      34.732  -6.303  43.979  0.00  0.00     0.115 C 
HETATM    8  C   UNK     0      34.270  -4.862  44.110  0.00  0.00     0.021 A 
HETATM    9  N   UNK     0      33.190  -4.277  43.569  0.00  0.00    -0.361 N 
HETATM   10  C   UNK     0      33.227  -2.963  43.876  0.00  0.00     0.022 A 
HETATM   11  C   UNK     0      34.356  -2.696  44.645  0.00  0.00    -0.027 A 
HETATM   12  C   UNK     0      35.018  -3.888  44.796  0.00  0.00    -0.031 A 
HETATM   13  C   UNK     0      36.304  -4.082  45.567  0.00  0.00     0.051 C 
HETATM   14  C   UNK     0      32.232  -1.902  43.416  0.00  0.00     0.115 C 
HETATM   15  C   UNK     0      32.162  -1.738  41.906  0.00  0.00     0.021 A 
HETATM   16  N   UNK     0      31.855  -2.676  40.991  0.00  0.00    -0.361 N 
HETATM   17  C   UNK     0      31.972  -2.152  39.769  0.00  0.00     0.022 A 
HETATM   18  C   UNK     0      32.366  -0.805  39.894  0.00  0.00    -0.027 A 
HETATM   19  C   UNK     0      32.480  -0.557  41.237  0.00  0.00    -0.031 A 
HETATM   20  C   UNK     0      32.851   0.795  41.818  0.00  0.00     0.051 C 
HETATM   21  C   UNK     0      31.811  -2.801  38.413  0.00  0.00     0.115 C 
HETATM   22  C   UNK     0      32.225  -4.248  38.279  0.00  0.00     0.022 A 
HETATM   23  N   UNK     0      33.293  -4.858  38.810  0.00  0.00    -0.361 N 
HETATM   24  C   UNK     0      33.195  -6.179  38.557  0.00  0.00     0.021 A 
HETATM   25  C   UNK     0      32.042  -6.424  37.837  0.00  0.00    -0.031 A 
HETATM   26  C   UNK     0      31.521  -7.736  37.287  0.00  0.00     0.051 C 
HETATM   27  C   UNK     0      31.404  -5.203  37.646  0.00  0.00    -0.027 A 
HETATM   28  C   UNK     0      34.116  -7.288  39.035  0.00  0.00     0.115 C 
HETATM   29  H   UNK     0      35.122  -5.494  41.145  0.00  0.00     0.165 HD
HETATM   30  H   UNK     0      32.374  -4.798  43.011  0.00  0.00     0.165 HD
HETATM   31  H   UNK     0      31.501  -3.717  41.212  0.00  0.00     0.165 HD
HETATM   32  H   UNK     0      34.148  -4.356  39.332  0.00  0.00     0.165 HD
ENDROOT
BRANCH   6  33
HETATM   33  C   UNK     0      33.587  -9.209  43.677  0.00  0.00     0.051 C 
BRANCH  33  34
HETATM   34  C   UNK     0      32.141  -9.040  44.078  0.00  0.00     0.114 C 
BRANCH  34  35
HETATM   35  C   UNK     0      32.123  -8.506  45.470  0.00  0.00     0.139 C 
HETATM   36  O   UNK     0      32.553  -9.212  46.429  0.00  0.00    -0.650 OA
BRANCH  35  37
HETATM   37  O   UNK     0      31.649  -7.237  45.780  0.00  0.00    -0.776 OA
HETATM   38  H   UNK     0      31.120  -7.054  46.617  0.00  0.00     0.167 HD
ENDBRANCH  35  37
ENDBRANCH  34  35
ENDBRANCH  33  34
ENDBRANCH   6  33
BRANCH  27  39
HETATM   39  C   UNK     0      30.158  -5.056  36.846  0.00  0.00     0.051 C 
BRANCH  39  40
HETATM   40  C   UNK     0      28.876  -5.059  37.552  0.00  0.00     0.114 C 
BRANCH  40  41
HETATM   41  C   UNK     0      27.632  -5.372  36.887  0.00  0.00     0.139 C 
HETATM   42  O   UNK     0      27.096  -4.629  36.053  0.00  0.00    -0.650 OA
BRANCH  41  43
HETATM   43  O   UNK     0      26.972  -6.596  37.195  0.00  0.00    -0.776 OA
HETATM   44  H   UNK     0      27.415  -7.420  36.806  0.00  0.00     0.167 HD
ENDBRANCH  41  43
ENDBRANCH  40  41
ENDBRANCH  39  40
ENDBRANCH  27  39
BRANCH  11  45
HETATM   45  C   UNK     0      34.811  -1.384  45.225  0.00  0.00     0.051 C 
BRANCH  45  46
HETATM   46  C   UNK     0      33.857  -0.786  46.194  0.00  0.00     0.114 C 
BRANCH  46  47
HETATM   47  C   UNK     0      34.001   0.695  46.098  0.00  0.00     0.139 C 
HETATM   48  O   UNK     0      34.308   1.190  45.005  0.00  0.00    -0.650 OA
BRANCH  47  49
HETATM   49  O   UNK     0      33.799   1.493  47.196  0.00  0.00    -0.776 OA
HETATM   50  H   UNK     0      34.580   1.890  47.732  0.00  0.00     0.167 HD
ENDBRANCH  47  49
ENDBRANCH  46  47
ENDBRANCH  45  46
ENDBRANCH  11  45
BRANCH  18  51
HETATM   51  C   UNK     0      32.600   0.198  38.794  0.00  0.00     0.051 C 
BRANCH  51  52
HETATM   52  C   UNK     0      31.348   1.060  38.730  0.00  0.00     0.114 C 
BRANCH  52  53
HETATM   53  C   UNK     0      31.638   2.474  39.036  0.00  0.00     0.139 C 
HETATM   54  O   UNK     0      32.807   2.890  39.001  0.00  0.00    -0.650 OA
BRANCH  53  55
HETATM   55  O   UNK     0      30.609   3.324  39.363  0.00  0.00    -0.776 OA
HETATM   56  H   UNK     0      29.729   3.377  38.907  0.00  0.00     0.167 HD
ENDBRANCH  53  55
ENDBRANCH  52  53
ENDBRANCH  51  52
ENDBRANCH  18  51
TORSDOF 16
ENDMDL
MODEL 6
REMARK VINA RESULT:      -8.8      8.156     12.844
REMARK  16 active torsions:
REMARK  status: ('A' for Active; 'I' for Inactive)
REMARK    1  A    between atoms: C_6  and  C_7 
REMARK    2  A    between atoms: C_7  and  C_8 
REMARK    3  A    between atoms: C_8  and  C_9 
REMARK    4  A    between atoms: C_9  and  O_11 
REMARK    5  A    between atoms: C_16  and  C_17 
REMARK    6  A    between atoms: C_17  and  C_18 
REMARK    7  A    between atoms: C_18  and  C_19 
REMARK    8  A    between atoms: C_19  and  O_21 
REMARK    9  A    between atoms: C_28  and  C_29 
REMARK   10  A    between atoms: C_29  and  C_30 
REMARK   11  A    between atoms: C_30  and  C_31 
REMARK   12  A    between atoms: C_31  and  O_33 
REMARK   13  A    between atoms: C_42  and  C_43 
REMARK   14  A    between atoms: C_43  and  C_44 
REMARK   15  A    between atoms: C_44  and  C_45 
REMARK   16  A    between atoms: C_45  and  O_47 
ROOT
HETATM    1  C   UNK     0       3.172   0.858  37.122  0.00  0.00     0.051 C 
HETATM    2  C   UNK     0       3.473   1.273  35.697  0.00  0.00    -0.031 A 
HETATM    3  C   UNK     0       2.691   1.989  34.804  0.00  0.00     0.021 A 
HETATM    4  N   UNK     0       3.352   2.100  33.628  0.00  0.00    -0.361 N 
HETATM    5  C   UNK     0       4.543   1.478  33.754  0.00  0.00     0.022 A 
HETATM    6  C   UNK     0       4.650   0.947  35.035  0.00  0.00    -0.027 A 
HETATM    7  C   UNK     0       5.679   1.393  32.783  0.00  0.00     0.115 C 
HETATM    8  C   UNK     0       6.032   2.665  32.033  0.00  0.00     0.021 A 
HETATM    9  N   UNK     0       5.991   3.933  32.472  0.00  0.00    -0.361 N 
HETATM   10  C   UNK     0       6.300   4.744  31.438  0.00  0.00     0.022 A 
HETATM   11  C   UNK     0       6.557   3.977  30.305  0.00  0.00    -0.027 A 
HETATM   12  C   UNK     0       6.390   2.667  30.673  0.00  0.00    -0.031 A 
HETATM   13  C   UNK     0       6.571   1.473  29.763  0.00  0.00     0.051 C 
HETATM   14  C   UNK     0       6.314   6.270  31.463  0.00  0.00     0.115 C 
HETATM   15  C   UNK     0       4.967   6.893  31.791  0.00  0.00     0.021 A 
HETATM   16  N   UNK     0       4.224   6.706  32.898  0.00  0.00    -0.361 N 
HETATM   17  C   UNK     0       3.075   7.375  32.773  0.00  0.00     0.022 A 
HETATM   18  C   UNK     0       3.075   8.038  31.529  0.00  0.00    -0.027 A 
HETATM   19  C   UNK     0       4.266   7.729  30.925  0.00  0.00    -0.031 A 
HETATM   20  C   UNK     0       4.690   8.270  29.572  0.00  0.00     0.051 C 
HETATM   21  C   UNK     0       1.880   7.434  33.696  0.00  0.00     0.115 C 
HETATM   22  C   UNK     0       1.543   6.188  34.482  0.00  0.00     0.022 A 
HETATM   23  N   UNK     0       1.579   4.913  34.072  0.00  0.00    -0.361 N 
HETATM   24  C   UNK     0       1.344   4.120  35.137  0.00  0.00     0.021 A 
HETATM   25  C   UNK     0       1.142   4.903  36.257  0.00  0.00    -0.031 A 
HETATM   26  C   UNK     0       0.807   4.476  37.671  0.00  0.00     0.051 C 
HETATM   27  C   UNK     0       1.264   6.231  35.863  0.00  0.00    -0.027 A 
HETATM   28  C   UNK     0       1.374   2.602  35.189  0.00  0.00     0.115 C 
HETATM   29  H   UNK     0       2.957   2.583  32.704  0.00  0.00     0.165 HD
HETATM   30  H   UNK     0       5.793   4.256  33.523  0.00  0.00     0.165 HD
HETATM   31  H   UNK     0       4.535   6.128  33.807  0.00  0.00     0.165 HD
HETATM   32  H   UNK     0       1.728   4.563  33.018  0.00  0.00     0.165 HD
ENDROOT
BRANCH   6  33
HETATM   33  C   UNK     0       5.770   0.161  35.668  0.00  0.00     0.051 C 
BRANCH  33  34
HETATM   34  C   UNK     0       6.992   1.029  35.858  0.00  0.00     0.114 C 
BRANCH  34  35
HETATM   35  C   UNK     0       8.187   0.189  35.559  0.00  0.00     0.139 C 
HETATM   36  O   UNK     0       8.669  -0.572  36.448  0.00  0.00    -0.650 OA
BRANCH  35  37
HETATM   37  O   UNK     0       8.817   0.195  34.321  0.00  0.00    -0.776 OA
HETATM   38  H   UNK     0       9.777   0.480  34.211  0.00  0.00     0.167 HD
ENDBRANCH  35  37
ENDBRANCH  34  35
ENDBRANCH  33  34
ENDBRANCH   6  33
BRANCH  27  39
HETATM   39  C   UNK     0       1.040   7.375  36.788  0.00  0.00     0.051 C 
BRANCH  39  40
HETATM   40  C   UNK     0       2.191   8.189  37.177  0.00  0.00     0.114 C 
BRANCH  40  41
HETATM   41  C   UNK     0       2.113   9.628  37.294  0.00  0.00     0.139 C 
HETATM   42  O   UNK     0       2.403  10.246  38.327  0.00  0.00    -0.650 OA
BRANCH  41  43
HETATM   43  O   UNK     0       1.681  10.390  36.172  0.00  0.00    -0.776 OA
HETATM   44  H   UNK     0       2.391  10.531  35.463  0.00  0.00     0.167 HD
ENDBRANCH  41  43
ENDBRANCH  40  41
ENDBRANCH  39  40
ENDBRANCH  27  39
BRANCH  11  45
HETATM   45  C   UNK     0       6.947   4.436  28.926  0.00  0.00     0.051 C 
BRANCH  45  46
HETATM   46  C   UNK     0       8.401   4.690  28.760  0.00  0.00     0.114 C 
BRANCH  46  47
HETATM   47  C   UNK     0       8.915   3.688  27.782  0.00  0.00     0.139 C 
HETATM   48  O   UNK     0       9.575   2.730  28.208  0.00  0.00    -0.650 OA
BRANCH  47  49
HETATM   49  O   UNK     0       8.664   3.823  26.440  0.00  0.00    -0.776 OA
HETATM   50  H   UNK     0       8.833   4.704  25.940  0.00  0.00     0.167 HD
ENDBRANCH  47  49
ENDBRANCH  46  47
ENDBRANCH  45  46
ENDBRANCH  11  45
BRANCH  18  51
HETATM   51  C   UNK     0       2.007   8.934  30.958  0.00  0.00     0.051 C 
BRANCH  51  52
HETATM   52  C   UNK     0       2.341  10.344  31.422  0.00  0.00     0.114 C 
BRANCH  52  53
HETATM   53  C   UNK     0       1.277  11.304  31.070  0.00  0.00     0.139 C 
HETATM   54  O   UNK     0       1.166  12.368  31.701  0.00  0.00    -0.650 OA
BRANCH  53  55
HETATM   55  O   UNK     0       0.411  11.013  30.044  0.00  0.00    -0.776 OA
HETATM   56  H   UNK     0      -0.298  10.319  30.057  0.00  0.00     0.167 HD
ENDBRANCH  53  55
ENDBRANCH  52  53
ENDBRANCH  51  52
ENDBRANCH  18  51
TORSDOF 16
ENDMDL
MODEL 7
REMARK VINA RESULT:      -8.8      5.345     10.345
REMARK  16 active torsions:
REMARK  status: ('A' for Active; 'I' for Inactive)
REMARK    1  A    between atoms: C_6  and  C_7 
REMARK    2  A    between atoms: C_7  and  C_8 
REMARK    3  A    between atoms: C_8  and  C_9 
REMARK    4  A    between atoms: C_9  and  O_11 
REMARK    5  A    between atoms: C_16  and  C_17 
REMARK    6  A    between atoms: C_17  and  C_18 
REMARK    7  A    between atoms: C_18  and  C_19 
REMARK    8  A    between atoms: C_19  and  O_21 
REMARK    9  A    between atoms: C_28  and  C_29 
REMARK   10  A    between atoms: C_29  and  C_30 
REMARK   11  A    between atoms: C_30  and  C_31 
REMARK   12  A    between atoms: C_31  and  O_33 
REMARK   13  A    between atoms: C_42  and  C_43 
REMARK   14  A    between atoms: C_43  and  C_44 
REMARK   15  A    between atoms: C_44  and  C_45 
REMARK   16  A    between atoms: C_45  and  O_47 
ROOT
HETATM    1  C   UNK     0       2.669   8.514  34.856  0.00  0.00     0.051 C 
HETATM    2  C   UNK     0       1.941   7.740  35.936  0.00  0.00    -0.031 A 
HETATM    3  C   UNK     0       1.212   6.566  35.837  0.00  0.00     0.021 A 
HETATM    4  N   UNK     0       0.709   6.254  37.056  0.00  0.00    -0.361 N 
HETATM    5  C   UNK     0       1.108   7.200  37.930  0.00  0.00     0.022 A 
HETATM    6  C   UNK     0       1.878   8.147  37.263  0.00  0.00    -0.027 A 
HETATM    7  C   UNK     0       0.904   7.275  39.411  0.00  0.00     0.115 C 
HETATM    8  C   UNK     0       1.090   5.985  40.190  0.00  0.00     0.021 A 
HETATM    9  N   UNK     0       1.966   4.993  39.969  0.00  0.00    -0.361 N 
HETATM   10  C   UNK     0       1.711   4.003  40.851  0.00  0.00     0.022 A 
HETATM   11  C   UNK     0       0.647   4.372  41.670  0.00  0.00    -0.027 A 
HETATM   12  C   UNK     0       0.251   5.619  41.259  0.00  0.00    -0.031 A 
HETATM   13  C   UNK     0      -0.876   6.423  41.867  0.00  0.00     0.051 C 
HETATM   14  C   UNK     0       2.422   2.655  40.923  0.00  0.00     0.115 C 
HETATM   15  C   UNK     0       2.285   1.818  39.661  0.00  0.00     0.021 A 
HETATM   16  N   UNK     0       2.662   2.149  38.412  0.00  0.00    -0.361 N 
HETATM   17  C   UNK     0       2.305   1.173  37.574  0.00  0.00     0.022 A 
HETATM   18  C   UNK     0       1.675   0.153  38.314  0.00  0.00    -0.027 A 
HETATM   19  C   UNK     0       1.670   0.569  39.620  0.00  0.00    -0.031 A 
HETATM   20  C   UNK     0       1.112  -0.255  40.766  0.00  0.00     0.051 C 
HETATM   21  C   UNK     0       2.433   1.089  36.070  0.00  0.00     0.115 C 
HETATM   22  C   UNK     0       2.294   2.373  35.285  0.00  0.00     0.022 A 
HETATM   23  N   UNK     0       1.434   3.379  35.485  0.00  0.00    -0.361 N 
HETATM   24  C   UNK     0       1.756   4.385  34.647  0.00  0.00     0.021 A 
HETATM   25  C   UNK     0       2.844   4.013  33.882  0.00  0.00    -0.031 A 
HETATM   26  C   UNK     0       3.543   4.784  32.780  0.00  0.00     0.051 C 
HETATM   27  C   UNK     0       3.207   2.729  34.271  0.00  0.00    -0.027 A 
HETATM   28  C   UNK     0       1.128   5.766  34.568  0.00  0.00     0.115 C 
HETATM   29  H   UNK     0       0.043   5.390  37.281  0.00  0.00     0.165 HD
HETATM   30  H   UNK     0       2.799   5.009  39.224  0.00  0.00     0.165 HD
HETATM   31  H   UNK     0       3.233   3.069  38.121  0.00  0.00     0.165 HD
HETATM   32  H   UNK     0       0.562   3.372  36.191  0.00  0.00     0.165 HD
ENDROOT
BRANCH   6  33
HETATM   33  C   UNK     0       2.548   9.394  37.782  0.00  0.00     0.051 C 
BRANCH  33  34
HETATM   34  C   UNK     0       1.523  10.388  38.273  0.00  0.00     0.114 C 
BRANCH  34  35
HETATM   35  C   UNK     0       1.940  10.825  39.636  0.00  0.00     0.139 C 
HETATM   36  O   UNK     0       2.974  11.538  39.788  0.00  0.00    -0.650 OA
BRANCH  35  37
HETATM   37  O   UNK     0       1.232  10.483  40.782  0.00  0.00    -0.776 OA
HETATM   38  H   UNK     0       0.277  10.162  40.745  0.00  0.00     0.167 HD
ENDBRANCH  35  37
ENDBRANCH  34  35
ENDBRANCH  33  34
ENDBRANCH   6  33
BRANCH  27  39
HETATM   39  C   UNK     0       4.301   1.962  33.616  0.00  0.00     0.051 C 
BRANCH  39  40
HETATM   40  C   UNK     0       5.608   1.920  34.272  0.00  0.00     0.114 C 
BRANCH  40  41
HETATM   41  C   UNK     0       6.071   0.757  34.995  0.00  0.00     0.139 C 
HETATM   42  O   UNK     0       5.904   0.597  36.212  0.00  0.00    -0.650 OA
BRANCH  41  43
HETATM   43  O   UNK     0       6.757  -0.270  34.286  0.00  0.00    -0.776 OA
HETATM   44  H   UNK     0       6.950  -1.100  34.833  0.00  0.00     0.167 HD
ENDBRANCH  41  43
ENDBRANCH  40  41
ENDBRANCH  39  40
ENDBRANCH  27  39
BRANCH  11  45
HETATM   45  C   UNK     0       0.016   3.601  42.798  0.00  0.00     0.051 C 
BRANCH  45  46
HETATM   46  C   UNK     0      -1.392   3.202  42.545  0.00  0.00     0.114 C 
BRANCH  46  47
HETATM   47  C   UNK     0      -2.237   3.904  43.554  0.00  0.00     0.139 C 
HETATM   48  O   UNK     0      -1.752   4.147  44.667  0.00  0.00    -0.650 OA
BRANCH  47  49
HETATM   49  O   UNK     0      -3.525   4.273  43.257  0.00  0.00    -0.776 OA
HETATM   50  H   UNK     0      -3.758   4.808  42.412  0.00  0.00     0.167 HD
ENDBRANCH  47  49
ENDBRANCH  46  47
ENDBRANCH  45  46
ENDBRANCH  11  45
BRANCH  18  51
HETATM   51  C   UNK     0       1.126  -1.155  37.807  0.00  0.00     0.051 C 
BRANCH  51  52
HETATM   52  C   UNK     0      -0.328  -0.896  37.445  0.00  0.00     0.114 C 
BRANCH  52  53
HETATM   53  C   UNK     0      -1.236  -1.864  38.089  0.00  0.00     0.139 C 
HETATM   54  O   UNK     0      -1.464  -2.958  37.547  0.00  0.00    -0.650 OA
BRANCH  53  55
HETATM   55  O   UNK     0      -1.829  -1.547  39.287  0.00  0.00    -0.776 OA
HETATM   56  H   UNK     0      -1.357  -1.345  40.137  0.00  0.00     0.167 HD
ENDBRANCH  53  55
ENDBRANCH  52  53
ENDBRANCH  51  52
ENDBRANCH  18  51
TORSDOF 16
ENDMDL
MODEL 8
REMARK VINA RESULT:      -8.8     30.257     32.727
REMARK  16 active torsions:
REMARK  status: ('A' for Active; 'I' for Inactive)
REMARK    1  A    between atoms: C_6  and  C_7 
REMARK    2  A    between atoms: C_7  and  C_8 
REMARK    3  A    between atoms: C_8  and  C_9 
REMARK    4  A    between atoms: C_9  and  O_11 
REMARK    5  A    between atoms: C_16  and  C_17 
REMARK    6  A    between atoms: C_17  and  C_18 
REMARK    7  A    between atoms: C_18  and  C_19 
REMARK    8  A    between atoms: C_19  and  O_21 
REMARK    9  A    between atoms: C_28  and  C_29 
REMARK   10  A    between atoms: C_29  and  C_30 
REMARK   11  A    between atoms: C_30  and  C_31 
REMARK   12  A    between atoms: C_31  and  O_33 
REMARK   13  A    between atoms: C_42  and  C_43 
REMARK   14  A    between atoms: C_43  and  C_44 
REMARK   15  A    between atoms: C_44  and  C_45 
REMARK   16  A    between atoms: C_45  and  O_47 
ROOT
HETATM    1  C   UNK     0      35.580  -7.201  44.078  0.00  0.00     0.051 C 
HETATM    2  C   UNK     0      35.742  -5.723  44.370  0.00  0.00    -0.031 A 
HETATM    3  C   UNK     0      35.893  -4.664  43.489  0.00  0.00     0.021 A 
HETATM    4  N   UNK     0      36.035  -3.518  44.198  0.00  0.00    -0.361 N 
HETATM    5  C   UNK     0      35.968  -3.824  45.510  0.00  0.00     0.022 A 
HETATM    6  C   UNK     0      35.788  -5.195  45.654  0.00  0.00    -0.027 A 
HETATM    7  C   UNK     0      35.975  -2.916  46.700  0.00  0.00     0.115 C 
HETATM    8  C   UNK     0      35.140  -1.651  46.597  0.00  0.00     0.021 A 
HETATM    9  N   UNK     0      33.960  -1.476  45.982  0.00  0.00    -0.361 N 
HETATM   10  C   UNK     0      33.633  -0.169  46.067  0.00  0.00     0.022 A 
HETATM   11  C   UNK     0      34.625   0.515  46.764  0.00  0.00    -0.027 A 
HETATM   12  C   UNK     0      35.577  -0.413  47.101  0.00  0.00    -0.031 A 
HETATM   13  C   UNK     0      36.844  -0.125  47.875  0.00  0.00     0.051 C 
HETATM   14  C   UNK     0      32.405   0.495  45.451  0.00  0.00     0.115 C 
HETATM   15  C   UNK     0      32.340   0.384  43.936  0.00  0.00     0.021 A 
HETATM   16  N   UNK     0      32.324  -0.739  43.194  0.00  0.00    -0.361 N 
HETATM   17  C   UNK     0      32.334  -0.410  41.901  0.00  0.00     0.022 A 
HETATM   18  C   UNK     0      32.348   0.995  41.794  0.00  0.00    -0.027 A 
HETATM   19  C   UNK     0      32.350   1.481  43.076  0.00  0.00    -0.031 A 
HETATM   20  C   UNK     0      32.328   2.959  43.418  0.00  0.00     0.051 C 
HETATM   21  C   UNK     0      32.395  -1.292  40.674  0.00  0.00     0.115 C 
HETATM   22  C   UNK     0      33.186  -2.575  40.776  0.00  0.00     0.022 A 
HETATM   23  N   UNK     0      34.361  -2.780  41.385  0.00  0.00    -0.361 N 
HETATM   24  C   UNK     0      34.628  -4.101  41.357  0.00  0.00     0.021 A 
HETATM   25  C   UNK     0      33.606  -4.762  40.704  0.00  0.00    -0.031 A 
HETATM   26  C   UNK     0      33.473  -6.237  40.388  0.00  0.00     0.051 C 
HETATM   27  C   UNK     0      32.671  -3.806  40.322  0.00  0.00    -0.027 A 
HETATM   28  C   UNK     0      35.798  -4.826  41.999  0.00  0.00     0.115 C 
HETATM   29  H   UNK     0      36.220  -2.508  43.766  0.00  0.00     0.165 HD
HETATM   30  H   UNK     0      33.331  -2.282  45.531  0.00  0.00     0.165 HD
HETATM   31  H   UNK     0      32.255  -1.785  43.591  0.00  0.00     0.165 HD
HETATM   32  H   UNK     0      35.034  -1.987  41.804  0.00  0.00     0.165 HD
ENDROOT
BRANCH   6  33
HETATM   33  C   UNK     0      35.661  -6.032  46.902  0.00  0.00     0.051 C 
BRANCH  33  34
HETATM   34  C   UNK     0      34.330  -5.790  47.574  0.00  0.00     0.114 C 
BRANCH  34  35
HETATM   35  C   UNK     0      33.738  -7.123  47.885  0.00  0.00     0.139 C 
HETATM   36  O   UNK     0      34.098  -7.754  48.921  0.00  0.00    -0.650 OA
BRANCH  35  37
HETATM   37  O   UNK     0      32.783  -7.726  47.075  0.00  0.00    -0.776 OA
HETATM   38  H   UNK     0      33.011  -8.490  46.459  0.00  0.00     0.167 HD
ENDBRANCH  35  37
ENDBRANCH  34  35
ENDBRANCH  33  34
ENDBRANCH   6  33
BRANCH  27  39
HETATM   39  C   UNK     0      31.456  -4.133  39.528  0.00  0.00     0.051 C 
BRANCH  39  40
HETATM   40  C   UNK     0      31.466  -3.846  38.094  0.00  0.00     0.114 C 
BRANCH  40  41
HETATM   41  C   UNK     0      30.800  -2.691  37.534  0.00  0.00     0.139 C 
HETATM   42  O   UNK     0      29.625  -2.702  37.144  0.00  0.00    -0.650 OA
BRANCH  41  43
HETATM   43  O   UNK     0      31.520  -1.468  37.418  0.00  0.00    -0.776 OA
HETATM   44  H   UNK     0      32.517  -1.579  37.282  0.00  0.00     0.167 HD
ENDBRANCH  41  43
ENDBRANCH  40  41
ENDBRANCH  39  40
ENDBRANCH  27  39
BRANCH  11  45
HETATM   45  C   UNK     0      34.694   1.977  47.111  0.00  0.00     0.051 C 
BRANCH  45  46
HETATM   46  C   UNK     0      35.821   2.334  48.011  0.00  0.00     0.114 C 
BRANCH  46  47
HETATM   47  C   UNK     0      36.253   3.715  47.652  0.00  0.00     0.139 C 
HETATM   48  O   UNK     0      36.065   4.112  46.493  0.00  0.00    -0.650 OA
BRANCH  47  49
HETATM   49  O   UNK     0      36.846   4.530  48.582  0.00  0.00    -0.776 OA
HETATM   50  H   UNK     0      36.297   5.106  49.232  0.00  0.00     0.167 HD
ENDBRANCH  47  49
ENDBRANCH  46  47
ENDBRANCH  45  46
ENDBRANCH  11  45
BRANCH  18  51
HETATM   51  C   UNK     0      32.339   1.829  40.540  0.00  0.00     0.051 C 
BRANCH  51  52
HETATM   52  C   UNK     0      33.796   2.047  40.162  0.00  0.00     0.114 C 
BRANCH  52  53
HETATM   53  C   UNK     0      34.051   1.725  38.744  0.00  0.00     0.139 C 
HETATM   54  O   UNK     0      33.288   0.957  38.135  0.00  0.00    -0.650 OA
BRANCH  53  55
HETATM   55  O   UNK     0      35.136   2.275  38.106  0.00  0.00    -0.776 OA
HETATM   56  H   UNK     0      35.397   3.233  38.119  0.00  0.00     0.167 HD
ENDBRANCH  53  55
ENDBRANCH  52  53
ENDBRANCH  51  52
ENDBRANCH  18  51
TORSDOF 16
ENDMDL
MODEL 9
REMARK VINA RESULT:      -8.4     30.087     34.301
REMARK  16 active torsions:
REMARK  status: ('A' for Active; 'I' for Inactive)
REMARK    1  A    between atoms: C_6  and  C_7 
REMARK    2  A    between atoms: C_7  and  C_8 
REMARK    3  A    between atoms: C_8  and  C_9 
REMARK    4  A    between atoms: C_9  and  O_11 
REMARK    5  A    between atoms: C_16  and  C_17 
REMARK    6  A    between atoms: C_17  and  C_18 
REMARK    7  A    between atoms: C_18  and  C_19 
REMARK    8  A    between atoms: C_19  and  O_21 
REMARK    9  A    between atoms: C_28  and  C_29 
REMARK   10  A    between atoms: C_29  and  C_30 
REMARK   11  A    between atoms: C_30  and  C_31 
REMARK   12  A    between atoms: C_31  and  O_33 
REMARK   13  A    between atoms: C_42  and  C_43 
REMARK   14  A    between atoms: C_43  and  C_44 
REMARK   15  A    between atoms: C_44  and  C_45 
REMARK   16  A    between atoms: C_45  and  O_47 
ROOT
HETATM    1  C   UNK     0      32.068  -1.135  38.890  0.00  0.00     0.051 C 
HETATM    2  C   UNK     0      32.324  -1.186  40.383  0.00  0.00    -0.031 A 
HETATM    3  C   UNK     0      32.087  -2.215  41.281  0.00  0.00     0.021 A 
HETATM    4  N   UNK     0      32.442  -1.806  42.523  0.00  0.00    -0.361 N 
HETATM    5  C   UNK     0      32.908  -0.544  42.434  0.00  0.00     0.022 A 
HETATM    6  C   UNK     0      32.846  -0.124  41.109  0.00  0.00    -0.027 A 
HETATM    7  C   UNK     0      33.510   0.326  43.493  0.00  0.00     0.115 C 
HETATM    8  C   UNK     0      34.490  -0.338  44.444  0.00  0.00     0.021 A 
HETATM    9  N   UNK     0      35.383  -1.305  44.183  0.00  0.00    -0.361 N 
HETATM   10  C   UNK     0      35.976  -1.653  45.345  0.00  0.00     0.022 A 
HETATM   11  C   UNK     0      35.457  -0.882  46.381  0.00  0.00    -0.027 A 
HETATM   12  C   UNK     0      34.521  -0.051  45.820  0.00  0.00    -0.031 A 
HETATM   13  C   UNK     0      33.700   0.973  46.571  0.00  0.00     0.051 C 
HETATM   14  C   UNK     0      37.011  -2.758  45.534  0.00  0.00     0.115 C 
HETATM   15  C   UNK     0      36.509  -4.143  45.159  0.00  0.00     0.021 A 
HETATM   16  N   UNK     0      36.032  -4.550  43.968  0.00  0.00    -0.361 N 
HETATM   17  C   UNK     0      35.628  -5.818  44.067  0.00  0.00     0.022 A 
HETATM   18  C   UNK     0      35.862  -6.262  45.384  0.00  0.00    -0.027 A 
HETATM   19  C   UNK     0      36.415  -5.204  46.057  0.00  0.00    -0.031 A 
HETATM   20  C   UNK     0      36.856  -5.266  47.508  0.00  0.00     0.051 C 
HETATM   21  C   UNK     0      34.958  -6.707  43.044  0.00  0.00     0.115 C 
HETATM   22  C   UNK     0      34.013  -6.053  42.064  0.00  0.00     0.022 A 
HETATM   23  N   UNK     0      33.116  -5.085  42.294  0.00  0.00    -0.361 N 
HETATM   24  C   UNK     0      32.595  -4.700  41.112  0.00  0.00     0.021 A 
HETATM   25  C   UNK     0      33.161  -5.446  40.096  0.00  0.00    -0.031 A 
HETATM   26  C   UNK     0      32.871  -5.409  38.610  0.00  0.00     0.051 C 
HETATM   27  C   UNK     0      34.072  -6.319  40.681  0.00  0.00    -0.027 A 
HETATM   28  C   UNK     0      31.610  -3.574  40.854  0.00  0.00     0.115 C 
HETATM   29  H   UNK     0      32.323  -2.399  43.459  0.00  0.00     0.165 HD
HETATM   30  H   UNK     0      35.633  -1.710  43.172  0.00  0.00     0.165 HD
HETATM   31  H   UNK     0      36.024  -3.945  43.024  0.00  0.00     0.165 HD
HETATM   32  H   UNK     0      32.812  -4.693  43.300  0.00  0.00     0.165 HD
ENDROOT
BRANCH   6  33
HETATM   33  C   UNK     0      33.238   1.194  40.490  0.00  0.00     0.051 C 
BRANCH  33  34
HETATM   34  C   UNK     0      32.223   2.263  40.820  0.00  0.00     0.114 C 
BRANCH  34  35
HETATM   35  C   UNK     0      31.554   2.652  39.546  0.00  0.00     0.139 C 
HETATM   36  O   UNK     0      31.891   3.715  38.947  0.00  0.00    -0.650 OA
BRANCH  35  37
HETATM   37  O   UNK     0      30.552   1.887  38.962  0.00  0.00    -0.776 OA
HETATM   38  H   UNK     0      29.891   1.361  39.511  0.00  0.00     0.167 HD
ENDBRANCH  35  37
ENDBRANCH  34  35
ENDBRANCH  33  34
ENDBRANCH   6  33
BRANCH  27  39
HETATM   39  C   UNK     0      34.831  -7.337  39.905  0.00  0.00     0.051 C 
BRANCH  39  40
HETATM   40  C   UNK     0      35.982  -6.894  39.119  0.00  0.00     0.114 C 
BRANCH  40  41
HETATM   41  C   UNK     0      36.029  -7.026  37.680  0.00  0.00     0.139 C 
HETATM   42  O   UNK     0      35.065  -7.393  36.995  0.00  0.00    -0.650 OA
BRANCH  41  43
HETATM   43  O   UNK     0      37.242  -6.722  36.998  0.00  0.00    -0.776 OA
HETATM   44  H   UNK     0      37.115  -6.279  36.095  0.00  0.00     0.167 HD
ENDBRANCH  41  43
ENDBRANCH  40  41
ENDBRANCH  39  40
ENDBRANCH  27  39
BRANCH  11  45
HETATM   45  C   UNK     0      35.814  -0.906  47.843  0.00  0.00     0.051 C 
BRANCH  45  46
HETATM   46  C   UNK     0      37.186  -0.421  48.140  0.00  0.00     0.114 C 
BRANCH  46  47
HETATM   47  C   UNK     0      37.057   0.959  48.690  0.00  0.00     0.139 C 
HETATM   48  O   UNK     0      36.896   1.899  47.899  0.00  0.00    -0.650 OA
BRANCH  47  49
HETATM   49  O   UNK     0      37.118   1.186  50.042  0.00  0.00    -0.776 OA
HETATM   50  H   UNK     0      37.486   0.485  50.696  0.00  0.00     0.167 HD
ENDBRANCH  47  49
ENDBRANCH  46  47
ENDBRANCH  45  46
ENDBRANCH  11  45
BRANCH  18  51
HETATM   51  C   UNK     0      35.592  -7.627  45.962  0.00  0.00     0.051 C 
BRANCH  51  52
HETATM   52  C   UNK     0      34.118  -7.648  46.337  0.00  0.00     0.114 C 
BRANCH  52  53
HETATM   53  C   UNK     0      33.919  -7.510  47.792  0.00  0.00     0.139 C 
HETATM   54  O   UNK     0      34.475  -8.299  48.573  0.00  0.00    -0.650 OA
BRANCH  53  55
HETATM   55  O   UNK     0      33.112  -6.509  48.276  0.00  0.00    -0.776 OA
HETATM   56  H   UNK     0      33.331  -5.541  48.295  0.00  0.00     0.167 HD
ENDBRANCH  53  55
ENDBRANCH  52  53
ENDBRANCH  51  52
ENDBRANCH  18  51
TORSDOF 16
ENDMDL
MODEL 10
REMARK VINA RESULT:      -8.3     30.910     33.918
REMARK  16 active torsions:
REMARK  status: ('A' for Active; 'I' for Inactive)
REMARK    1  A    between atoms: C_6  and  C_7 
REMARK    2  A    between atoms: C_7  and  C_8 
REMARK    3  A    between atoms: C_8  and  C_9 
REMARK    4  A    between atoms: C_9  and  O_11 
REMARK    5  A    between atoms: C_16  and  C_17 
REMARK    6  A    between atoms: C_17  and  C_18 
REMARK    7  A    between atoms: C_18  and  C_19 
REMARK    8  A    between atoms: C_19  and  O_21 
REMARK    9  A    between atoms: C_28  and  C_29 
REMARK   10  A    between atoms: C_29  and  C_30 
REMARK   11  A    between atoms: C_30  and  C_31 
REMARK   12  A    between atoms: C_31  and  O_33 
REMARK   13  A    between atoms: C_42  and  C_43 
REMARK   14  A    between atoms: C_43  and  C_44 
REMARK   15  A    between atoms: C_44  and  C_45 
REMARK   16  A    between atoms: C_45  and  O_47 
ROOT
HETATM    1  C   UNK     0      35.197   1.055  47.275  0.00  0.00     0.051 C 
HETATM    2  C   UNK     0      34.866  -0.353  46.822  0.00  0.00    -0.031 A 
HETATM    3  C   UNK     0      33.745  -0.822  46.156  0.00  0.00     0.021 A 
HETATM    4  N   UNK     0      33.862  -2.160  45.982  0.00  0.00    -0.361 N 
HETATM    5  C   UNK     0      35.038  -2.552  46.515  0.00  0.00     0.022 A 
HETATM    6  C   UNK     0      35.690  -1.447  47.052  0.00  0.00    -0.027 A 
HETATM    7  C   UNK     0      35.685  -3.902  46.505  0.00  0.00     0.115 C 
HETATM    8  C   UNK     0      35.622  -4.678  45.201  0.00  0.00     0.021 A 
HETATM    9  N   UNK     0      35.682  -4.209  43.945  0.00  0.00    -0.361 N 
HETATM   10  C   UNK     0      35.493  -5.245  43.101  0.00  0.00     0.022 A 
HETATM   11  C   UNK     0      35.315  -6.415  43.833  0.00  0.00    -0.027 A 
HETATM   12  C   UNK     0      35.395  -6.065  45.157  0.00  0.00    -0.031 A 
HETATM   13  C   UNK     0      35.265  -7.019  46.323  0.00  0.00     0.051 C 
HETATM   14  C   UNK     0      35.419  -5.166  41.579  0.00  0.00     0.115 C 
HETATM   15  C   UNK     0      34.286  -4.295  41.062  0.00  0.00     0.021 A 
HETATM   16  N   UNK     0      34.069  -2.991  41.316  0.00  0.00    -0.361 N 
HETATM   17  C   UNK     0      32.930  -2.614  40.733  0.00  0.00     0.022 A 
HETATM   18  C   UNK     0      32.382  -3.722  40.057  0.00  0.00    -0.027 A 
HETATM   19  C   UNK     0      33.241  -4.769  40.270  0.00  0.00    -0.031 A 
HETATM   20  C   UNK     0      33.045  -6.155  39.683  0.00  0.00     0.051 C 
HETATM   21  C   UNK     0      32.211  -1.284  40.774  0.00  0.00     0.115 C 
HETATM   22  C   UNK     0      32.303  -0.481  42.050  0.00  0.00     0.022 A 
HETATM   23  N   UNK     0      32.249  -0.922  43.314  0.00  0.00    -0.361 N 
HETATM   24  C   UNK     0      32.518   0.114  44.135  0.00  0.00     0.021 A 
HETATM   25  C   UNK     0      32.739   1.251  43.382  0.00  0.00    -0.031 A 
HETATM   26  C   UNK     0      33.036   2.661  43.849  0.00  0.00     0.051 C 
HETATM   27  C   UNK     0      32.607   0.896  42.044  0.00  0.00    -0.027 A 
HETATM   28  C   UNK     0      32.662   0.087  45.647  0.00  0.00     0.115 C 
HETATM   29  H   UNK     0      33.096  -2.824  45.519  0.00  0.00     0.165 HD
HETATM   30  H   UNK     0      35.909  -3.155  43.650  0.00  0.00     0.165 HD
HETATM   31  H   UNK     0      34.759  -2.310  41.880  0.00  0.00     0.165 HD
HETATM   32  H   UNK     0      31.979  -1.959  43.640  0.00  0.00     0.165 HD
ENDROOT
BRANCH   6  33
HETATM   33  C   UNK     0      37.018  -1.353  47.760  0.00  0.00     0.051 C 
BRANCH  33  34
HETATM   34  C   UNK     0      38.157  -1.415  46.770  0.00  0.00     0.114 C 
BRANCH  34  35
HETATM   35  C   UNK     0      38.933  -2.655  47.058  0.00  0.00     0.139 C 
HETATM   36  O   UNK     0      38.666  -3.350  48.081  0.00  0.00    -0.650 OA
BRANCH  35  37
HETATM   37  O   UNK     0      39.961  -3.104  46.238  0.00  0.00    -0.776 OA
HETATM   38  H   UNK     0      39.785  -3.643  45.406  0.00  0.00     0.167 HD
ENDBRANCH  35  37
ENDBRANCH  34  35
ENDBRANCH  33  34
ENDBRANCH   6  33
BRANCH  27  39
HETATM   39  C   UNK     0      32.706   1.878  40.931  0.00  0.00     0.051 C 
BRANCH  39  40
HETATM   40  C   UNK     0      33.944   1.923  40.154  0.00  0.00     0.114 C 
BRANCH  40  41
HETATM   41  C   UNK     0      33.991   1.556  38.756  0.00  0.00     0.139 C 
HETATM   42  O   UNK     0      33.083   0.941  38.181  0.00  0.00    -0.650 OA
BRANCH  41  43
HETATM   43  O   UNK     0      35.134   1.912  37.986  0.00  0.00    -0.776 OA
HETATM   44  H   UNK     0      35.517   2.824  38.202  0.00  0.00     0.167 HD
ENDBRANCH  41  43
ENDBRANCH  40  41
ENDBRANCH  39  40
ENDBRANCH  27  39
BRANCH  11  45
HETATM   45  C   UNK     0      35.080  -7.814  43.331  0.00  0.00     0.051 C 
BRANCH  45  46
HETATM   46  C   UNK     0      33.667  -8.103  42.977  0.00  0.00     0.114 C 
BRANCH  46  47
HETATM   47  C   UNK     0      33.444  -9.560  43.200  0.00  0.00     0.139 C 
HETATM   48  O   UNK     0      33.615 -10.017  44.339  0.00  0.00    -0.650 OA
BRANCH  47  49
HETATM   49  O   UNK     0      33.059 -10.378  42.169  0.00  0.00    -0.776 OA
HETATM   50  H   UNK     0      33.624 -11.183  41.871  0.00  0.00     0.167 HD
ENDBRANCH  47  49
ENDBRANCH  46  47
ENDBRANCH  45  46
ENDBRANCH  11  45
BRANCH  18  51
HETATM   51  C   UNK     0      31.120  -3.776  39.236  0.00  0.00     0.051 C 
BRANCH  51  52
HETATM   52  C   UNK     0      31.521  -3.412  37.815  0.00  0.00     0.114 C 
BRANCH  52  53
HETATM   53  C   UNK     0      31.536  -4.592  36.929  0.00  0.00     0.139 C 
HETATM   54  O   UNK     0      30.594  -5.400  36.954  0.00  0.00    -0.650 OA
BRANCH  53  55
HETATM   55  O   UNK     0      32.598  -4.791  36.081  0.00  0.00    -0.776 OA
HETATM   56  H   UNK     0      32.593  -4.656  35.097  0.00  0.00     0.167 HD
ENDBRANCH  53  55
ENDBRANCH  52  53
ENDBRANCH  51  52
ENDBRANCH  18  51
TORSDOF 16
ENDMDL
MODEL 11
REMARK VINA RESULT:      -8.2     29.513     33.558
REMARK  16 active torsions:
REMARK  status: ('A' for Active; 'I' for Inactive)
REMARK    1  A    between atoms: C_6  and  C_7 
REMARK    2  A    between atoms: C_7  and  C_8 
REMARK    3  A    between atoms: C_8  and  C_9 
REMARK    4  A    between atoms: C_9  and  O_11 
REMARK    5  A    between atoms: C_16  and  C_17 
REMARK    6  A    between atoms: C_17  and  C_18 
REMARK    7  A    between atoms: C_18  and  C_19 
REMARK    8  A    between atoms: C_19  and  O_21 
REMARK    9  A    between atoms: C_28  and  C_29 
REMARK   10  A    between atoms: C_29  and  C_30 
REMARK   11  A    between atoms: C_30  and  C_31 
REMARK   12  A    between atoms: C_31  and  O_33 
REMARK   13  A    between atoms: C_42  and  C_43 
REMARK   14  A    between atoms: C_43  and  C_44 
REMARK   15  A    between atoms: C_44  and  C_45 
REMARK   16  A    between atoms: C_45  and  O_47 
ROOT
HETATM    1  C   UNK     0      34.975   2.377  47.110  0.00  0.00     0.051 C 
HETATM    2  C   UNK     0      34.762   0.894  46.884  0.00  0.00    -0.031 A 
HETATM    3  C   UNK     0      33.693   0.239  46.295  0.00  0.00     0.021 A 
HETATM    4  N   UNK     0      33.916  -1.096  46.336  0.00  0.00    -0.361 N 
HETATM    5  C   UNK     0      35.109  -1.305  46.932  0.00  0.00     0.022 A 
HETATM    6  C   UNK     0      35.664  -0.082  47.290  0.00  0.00    -0.027 A 
HETATM    7  C   UNK     0      35.858  -2.585  47.140  0.00  0.00     0.115 C 
HETATM    8  C   UNK     0      35.878  -3.560  45.976  0.00  0.00     0.021 A 
HETATM    9  N   UNK     0      35.926  -3.292  44.661  0.00  0.00    -0.361 N 
HETATM   10  C   UNK     0      35.832  -4.460  43.992  0.00  0.00     0.022 A 
HETATM   11  C   UNK     0      35.731  -5.510  44.900  0.00  0.00    -0.027 A 
HETATM   12  C   UNK     0      35.760  -4.950  46.151  0.00  0.00    -0.031 A 
HETATM   13  C   UNK     0      35.682  -5.715  47.453  0.00  0.00     0.051 C 
HETATM   14  C   UNK     0      35.780  -4.628  42.476  0.00  0.00     0.115 C 
HETATM   15  C   UNK     0      34.593  -3.943  41.820  0.00  0.00     0.021 A 
HETATM   16  N   UNK     0      34.272  -2.636  41.863  0.00  0.00    -0.361 N 
HETATM   17  C   UNK     0      33.118  -2.446  41.220  0.00  0.00     0.022 A 
HETATM   18  C   UNK     0      32.669  -3.687  40.727  0.00  0.00    -0.027 A 
HETATM   19  C   UNK     0      33.602  -4.616  41.108  0.00  0.00    -0.031 A 
HETATM   20  C   UNK     0      33.524  -6.088  40.748  0.00  0.00     0.051 C 
HETATM   21  C   UNK     0      32.298  -1.188  41.045  0.00  0.00     0.115 C 
HETATM   22  C   UNK     0      32.304  -0.188  42.178  0.00  0.00     0.022 A 
HETATM   23  N   UNK     0      32.262  -0.427  43.496  0.00  0.00    -0.361 N 
HETATM   24  C   UNK     0      32.435   0.743  44.143  0.00  0.00     0.021 A 
HETATM   25  C   UNK     0      32.582   1.761  43.221  0.00  0.00    -0.031 A 
HETATM   26  C   UNK     0      32.760   3.246  43.460  0.00  0.00     0.051 C 
HETATM   27  C   UNK     0      32.501   1.190  41.956  0.00  0.00    -0.027 A 
HETATM   28  C   UNK     0      32.553   0.968  45.641  0.00  0.00     0.115 C 
HETATM   29  H   UNK     0      33.212  -1.884  45.980  0.00  0.00     0.165 HD
HETATM   30  H   UNK     0      36.075  -2.283  44.204  0.00  0.00     0.165 HD
HETATM   31  H   UNK     0      34.897  -1.822  42.315  0.00  0.00     0.165 HD
HETATM   32  H   UNK     0      32.066  -1.418  43.981  0.00  0.00     0.165 HD
ENDROOT
BRANCH   6  33
HETATM   33  C   UNK     0      36.968   0.227  47.981  0.00  0.00     0.051 C 
BRANCH  33  34
HETATM   34  C   UNK     0      36.722   0.897  49.313  0.00  0.00     0.114 C 
BRANCH  34  35
HETATM   35  C   UNK     0      37.604   2.097  49.378  0.00  0.00     0.139 C 
HETATM   36  O   UNK     0      37.111   3.238  49.615  0.00  0.00    -0.650 OA
BRANCH  35  37
HETATM   37  O   UNK     0      38.979   2.028  49.190  0.00  0.00    -0.776 OA
HETATM   38  H   UNK     0      39.626   2.517  49.787  0.00  0.00     0.167 HD
ENDBRANCH  35  37
ENDBRANCH  34  35
ENDBRANCH  33  34
ENDBRANCH   6  33
BRANCH  27  39
HETATM   39  C   UNK     0      32.545   1.989  40.701  0.00  0.00     0.051 C 
BRANCH  39  40
HETATM   40  C   UNK     0      31.441   2.907  40.424  0.00  0.00     0.114 C 
BRANCH  40  41
HETATM   41  C   UNK     0      31.586   4.341  40.532  0.00  0.00     0.139 C 
HETATM   42  O   UNK     0      32.557   4.965  40.084  0.00  0.00    -0.650 OA
BRANCH  41  43
HETATM   43  O   UNK     0      30.567   5.092  41.184  0.00  0.00    -0.776 OA
HETATM   44  H   UNK     0      30.906   5.881  41.721  0.00  0.00     0.167 HD
ENDBRANCH  41  43
ENDBRANCH  40  41
ENDBRANCH  39  40
ENDBRANCH  27  39
BRANCH  11  45
HETATM   45  C   UNK     0      35.614  -6.985  44.624  0.00  0.00     0.051 C 
BRANCH  45  46
HETATM   46  C   UNK     0      36.879  -7.740  44.818  0.00  0.00     0.114 C 
BRANCH  46  47
HETATM   47  C   UNK     0      37.917  -7.086  43.971  0.00  0.00     0.139 C 
HETATM   48  O   UNK     0      37.782  -7.116  42.740  0.00  0.00    -0.650 OA
BRANCH  47  49
HETATM   49  O   UNK     0      39.000  -6.466  44.541  0.00  0.00    -0.776 OA
HETATM   50  H   UNK     0      39.038  -5.449  44.675  0.00  0.00     0.167 HD
ENDBRANCH  47  49
ENDBRANCH  46  47
ENDBRANCH  45  46
ENDBRANCH  11  45
BRANCH  18  51
HETATM   51  C   UNK     0      31.430  -3.969  39.917  0.00  0.00     0.051 C 
BRANCH  51  52
HETATM   52  C   UNK     0      31.834  -3.830  38.457  0.00  0.00     0.114 C 
BRANCH  52  53
HETATM   53  C   UNK     0      30.813  -3.111  37.670  0.00  0.00     0.139 C 
HETATM   54  O   UNK     0      31.160  -2.298  36.799  0.00  0.00    -0.650 OA
BRANCH  53  55
HETATM   55  O   UNK     0      29.481  -3.345  37.910  0.00  0.00    -0.776 OA
HETATM   56  H   UNK     0      28.800  -3.592  37.232  0.00  0.00     0.167 HD
ENDBRANCH  53  55
ENDBRANCH  52  53
ENDBRANCH  51  52
ENDBRANCH  18  51
TORSDOF 16
ENDMDL
MODEL 12
REMARK VINA RESULT:      -8.1      2.878      7.607
REMARK  16 active torsions:
REMARK  status: ('A' for Active; 'I' for Inactive)
REMARK    1  A    between atoms: C_6  and  C_7 
REMARK    2  A    between atoms: C_7  and  C_8 
REMARK    3  A    between atoms: C_8  and  C_9 
REMARK    4  A    between atoms: C_9  and  O_11 
REMARK    5  A    between atoms: C_16  and  C_17 
REMARK    6  A    between atoms: C_17  and  C_18 
REMARK    7  A    between atoms: C_18  and  C_19 
REMARK    8  A    between atoms: C_19  and  O_21 
REMARK    9  A    between atoms: C_28  and  C_29 
REMARK   10  A    between atoms: C_29  and  C_30 
REMARK   11  A    between atoms: C_30  and  C_31 
REMARK   12  A    between atoms: C_31  and  O_33 
REMARK   13  A    between atoms: C_42  and  C_43 
REMARK   14  A    between atoms: C_43  and  C_44 
REMARK   15  A    between atoms: C_44  and  C_45 
REMARK   16  A    between atoms: C_45  and  O_47 
ROOT
HETATM    1  C   UNK     0       6.113  10.762  46.514  0.00  0.00     0.051 C 
HETATM    2  C   UNK     0       5.513   9.372  46.586  0.00  0.00    -0.031 A 
HETATM    3  C   UNK     0       4.233   8.948  46.263  0.00  0.00     0.021 A 
HETATM    4  N   UNK     0       4.131   7.621  46.515  0.00  0.00    -0.361 N 
HETATM    5  C   UNK     0       5.320   7.189  46.983  0.00  0.00     0.022 A 
HETATM    6  C   UNK     0       6.207   8.259  47.043  0.00  0.00    -0.027 A 
HETATM    7  C   UNK     0       5.762   5.799  47.320  0.00  0.00     0.115 C 
HETATM    8  C   UNK     0       5.351   4.700  46.356  0.00  0.00     0.021 A 
HETATM    9  N   UNK     0       5.240   4.758  45.020  0.00  0.00    -0.361 N 
HETATM   10  C   UNK     0       4.755   3.575  44.587  0.00  0.00     0.022 A 
HETATM   11  C   UNK     0       4.558   2.728  45.674  0.00  0.00    -0.027 A 
HETATM   12  C   UNK     0       4.931   3.430  46.791  0.00  0.00    -0.031 A 
HETATM   13  C   UNK     0       4.890   2.904  48.208  0.00  0.00     0.051 C 
HETATM   14  C   UNK     0       4.411   3.215  43.145  0.00  0.00     0.115 C 
HETATM   15  C   UNK     0       3.331   4.093  42.532  0.00  0.00     0.021 A 
HETATM   16  N   UNK     0       3.348   5.430  42.381  0.00  0.00    -0.361 N 
HETATM   17  C   UNK     0       2.183   5.828  41.865  0.00  0.00     0.022 A 
HETATM   18  C   UNK     0       1.371   4.694  41.662  0.00  0.00    -0.027 A 
HETATM   19  C   UNK     0       2.103   3.614  42.083  0.00  0.00    -0.031 A 
HETATM   20  C   UNK     0       1.611   2.180  42.004  0.00  0.00     0.051 C 
HETATM   21  C   UNK     0       1.674   7.221  41.573  0.00  0.00     0.115 C 
HETATM   22  C   UNK     0       2.112   8.332  42.498  0.00  0.00     0.022 A 
HETATM   23  N   UNK     0       2.235   8.301  43.832  0.00  0.00    -0.361 N 
HETATM   24  C   UNK     0       2.792   9.462  44.233  0.00  0.00     0.021 A 
HETATM   25  C   UNK     0       3.023  10.264  43.132  0.00  0.00    -0.031 A 
HETATM   26  C   UNK     0       3.592  11.666  43.077  0.00  0.00     0.051 C 
HETATM   27  C   UNK     0       2.596   9.562  42.010  0.00  0.00    -0.027 A 
HETATM   28  C   UNK     0       3.211   9.855  45.639  0.00  0.00     0.115 C 
HETATM   29  H   UNK     0       3.208   7.008  46.397  0.00  0.00     0.165 HD
HETATM   30  H   UNK     0       5.550   5.616  44.374  0.00  0.00     0.165 HD
HETATM   31  H   UNK     0       4.218   6.104  42.598  0.00  0.00     0.165 HD
HETATM   32  H   UNK     0       1.889   7.476  44.508  0.00  0.00     0.165 HD
ENDROOT
BRANCH   6  33
HETATM   33  C   UNK     0       7.644   8.304  47.498  0.00  0.00     0.051 C 
BRANCH  33  34
HETATM   34  C   UNK     0       7.731   8.674  48.960  0.00  0.00     0.114 C 
BRANCH  34  35
HETATM   35  C   UNK     0       9.149   9.037  49.244  0.00  0.00     0.139 C 
HETATM   36  O   UNK     0       9.560  10.215  49.032  0.00  0.00    -0.650 OA
BRANCH  35  37
HETATM   37  O   UNK     0      10.069   8.126  49.748  0.00  0.00    -0.776 OA
HETATM   38  H   UNK     0       9.795   7.209  50.064  0.00  0.00     0.167 HD
ENDBRANCH  35  37
ENDBRANCH  34  35
ENDBRANCH  33  34
ENDBRANCH   6  33
BRANCH  27  39
HETATM   39  C   UNK     0       2.620  10.137  40.637  0.00  0.00     0.051 C 
BRANCH  39  40
HETATM   40  C   UNK     0       1.379  10.686  40.093  0.00  0.00     0.114 C 
BRANCH  40  41
HETATM   41  C   UNK     0       0.403  11.356  40.923  0.00  0.00     0.139 C 
HETATM   42  O   UNK     0       0.454  12.562  41.200  0.00  0.00    -0.650 OA
BRANCH  41  43
HETATM   43  O   UNK     0      -0.680  10.605  41.460  0.00  0.00    -0.776 OA
HETATM   44  H   UNK     0      -0.549   9.601  41.430  0.00  0.00     0.167 HD
ENDBRANCH  41  43
ENDBRANCH  40  41
ENDBRANCH  39  40
ENDBRANCH  27  39
BRANCH  11  45
HETATM   45  C   UNK     0       4.044   1.313  45.684  0.00  0.00     0.051 C 
BRANCH  45  46
HETATM   46  C   UNK     0       4.974   0.335  46.302  0.00  0.00     0.114 C 
BRANCH  46  47
HETATM   47  C   UNK     0       4.433  -1.026  46.022  0.00  0.00     0.139 C 
HETATM   48  O   UNK     0       3.460  -1.424  46.678  0.00  0.00    -0.650 OA
BRANCH  47  49
HETATM   49  O   UNK     0       5.001  -1.823  45.060  0.00  0.00    -0.776 OA
HETATM   50  H   UNK     0       5.607  -2.618  45.298  0.00  0.00     0.167 HD
ENDBRANCH  47  49
ENDBRANCH  46  47
ENDBRANCH  45  46
ENDBRANCH  11  45
BRANCH  18  51
HETATM   51  C   UNK     0      -0.017   4.641  41.079  0.00  0.00     0.051 C 
BRANCH  51  52
HETATM   52  C   UNK     0       0.154   4.666  39.568  0.00  0.00     0.114 C 
BRANCH  52  53
HETATM   53  C   UNK     0      -0.343   3.428  38.938  0.00  0.00     0.139 C 
HETATM   54  O   UNK     0      -0.343   3.316  37.701  0.00  0.00    -0.650 OA
BRANCH  53  55
HETATM   55  O   UNK     0      -0.809   2.403  39.726  0.00  0.00    -0.776 OA
HETATM   56  H   UNK     0      -1.644   2.413  40.263  0.00  0.00     0.167 HD
ENDBRANCH  53  55
ENDBRANCH  52  53
ENDBRANCH  51  52
ENDBRANCH  18  51
TORSDOF 16
ENDMDL
MODEL 13
REMARK VINA RESULT:      -8.0     10.618     14.182
REMARK  16 active torsions:
REMARK  status: ('A' for Active; 'I' for Inactive)
REMARK    1  A    between atoms: C_6  and  C_7 
REMARK    2  A    between atoms: C_7  and  C_8 
REMARK    3  A    between atoms: C_8  and  C_9 
REMARK    4  A    between atoms: C_9  and  O_11 
REMARK    5  A    between atoms: C_16  and  C_17 
REMARK    6  A    between atoms: C_17  and  C_18 
REMARK    7  A    between atoms: C_18  and  C_19 
REMARK    8  A    between atoms: C_19  and  O_21 
REMARK    9  A    between atoms: C_28  and  C_29 
REMARK   10  A    between atoms: C_29  and  C_30 
REMARK   11  A    between atoms: C_30  and  C_31 
REMARK   12  A    between atoms: C_31  and  O_33 
REMARK   13  A    between atoms: C_42  and  C_43 
REMARK   14  A    between atoms: C_43  and  C_44 
REMARK   15  A    between atoms: C_44  and  C_45 
REMARK   16  A    between atoms: C_45  and  O_47 
ROOT
HETATM    1  C   UNK     0      10.108   3.184  28.391  0.00  0.00     0.051 C 
HETATM    2  C   UNK     0       8.760   3.812  28.682  0.00  0.00    -0.031 A 
HETATM    3  C   UNK     0       7.532   3.203  28.891  0.00  0.00     0.021 A 
HETATM    4  N   UNK     0       6.593   4.159  29.085  0.00  0.00    -0.361 N 
HETATM    5  C   UNK     0       7.197   5.363  29.013  0.00  0.00     0.022 A 
HETATM    6  C   UNK     0       8.552   5.183  28.758  0.00  0.00    -0.027 A 
HETATM    7  C   UNK     0       6.629   6.728  29.247  0.00  0.00     0.115 C 
HETATM    8  C   UNK     0       5.692   6.882  30.433  0.00  0.00     0.021 A 
HETATM    9  N   UNK     0       5.750   6.276  31.628  0.00  0.00    -0.361 N 
HETATM   10  C   UNK     0       4.662   6.643  32.338  0.00  0.00     0.022 A 
HETATM   11  C   UNK     0       3.886   7.517  31.581  0.00  0.00    -0.027 A 
HETATM   12  C   UNK     0       4.530   7.673  30.380  0.00  0.00    -0.031 A 
HETATM   13  C   UNK     0       4.053   8.543  29.239  0.00  0.00     0.051 C 
HETATM   14  C   UNK     0       4.283   6.145  33.730  0.00  0.00     0.115 C 
HETATM   15  C   UNK     0       4.057   4.644  33.806  0.00  0.00     0.021 A 
HETATM   16  N   UNK     0       4.930   3.665  33.501  0.00  0.00    -0.361 N 
HETATM   17  C   UNK     0       4.326   2.482  33.633  0.00  0.00     0.022 A 
HETATM   18  C   UNK     0       2.999   2.700  34.055  0.00  0.00    -0.027 A 
HETATM   19  C   UNK     0       2.844   4.058  34.161  0.00  0.00    -0.031 A 
HETATM   20  C   UNK     0       1.563   4.727  34.625  0.00  0.00     0.051 C 
HETATM   21  C   UNK     0       4.841   1.091  33.344  0.00  0.00     0.115 C 
HETATM   22  C   UNK     0       5.808   0.929  32.195  0.00  0.00     0.022 A 
HETATM   23  N   UNK     0       5.778   1.523  30.995  0.00  0.00    -0.361 N 
HETATM   24  C   UNK     0       6.910   1.205  30.336  0.00  0.00     0.021 A 
HETATM   25  C   UNK     0       7.684   0.377  31.126  0.00  0.00    -0.031 A 
HETATM   26  C   UNK     0       9.015  -0.272  30.810  0.00  0.00     0.051 C 
HETATM   27  C   UNK     0       6.999   0.186  32.321  0.00  0.00    -0.027 A 
HETATM   28  C   UNK     0       7.370   1.712  28.980  0.00  0.00     0.115 C 
HETATM   29  H   UNK     0       5.503   3.977  29.233  0.00  0.00     0.165 HD
HETATM   30  H   UNK     0       6.584   5.627  31.994  0.00  0.00     0.165 HD
HETATM   31  H   UNK     0       6.009   3.810  33.232  0.00  0.00     0.165 HD
HETATM   32  H   UNK     0       4.935   2.139  30.584  0.00  0.00     0.165 HD
ENDROOT
BRANCH   6  33
HETATM   33  C   UNK     0       9.650   6.201  28.583  0.00  0.00     0.051 C 
BRANCH  33  34
HETATM   34  C   UNK     0      10.432   6.371  29.863  0.00  0.00     0.114 C 
BRANCH  34  35
HETATM   35  C   UNK     0       9.832   7.517  30.605  0.00  0.00     0.139 C 
HETATM   36  O   UNK     0       9.860   8.681  30.109  0.00  0.00    -0.650 OA
BRANCH  35  37
HETATM   37  O   UNK     0       9.224   7.371  31.845  0.00  0.00    -0.776 OA
HETATM   38  H   UNK     0       8.584   8.057  32.211  0.00  0.00     0.167 HD
ENDBRANCH  35  37
ENDBRANCH  34  35
ENDBRANCH  33  34
ENDBRANCH   6  33
BRANCH  27  39
HETATM   39  C   UNK     0       7.491  -0.711  33.402  0.00  0.00     0.051 C 
BRANCH  39  40
HETATM   40  C   UNK     0       8.044  -0.102  34.612  0.00  0.00     0.114 C 
BRANCH  40  41
HETATM   41  C   UNK     0       7.344  -0.126  35.876  0.00  0.00     0.139 C 
HETATM   42  O   UNK     0       6.663   0.818  36.299  0.00  0.00    -0.650 OA
BRANCH  41  43
HETATM   43  O   UNK     0       7.430  -1.290  36.692  0.00  0.00    -0.776 OA
HETATM   44  H   UNK     0       8.279  -1.356  37.239  0.00  0.00     0.167 HD
ENDBRANCH  41  43
ENDBRANCH  40  41
ENDBRANCH  39  40
ENDBRANCH  27  39
BRANCH  11  45
HETATM   45  C   UNK     0       2.594   8.192  31.954  0.00  0.00     0.051 C 
BRANCH  45  46
HETATM   46  C   UNK     0       2.760   9.379  32.831  0.00  0.00     0.114 C 
BRANCH  46  47
HETATM   47  C   UNK     0       2.180  10.547  32.109  0.00  0.00     0.139 C 
HETATM   48  O   UNK     0       2.166  11.648  32.677  0.00  0.00    -0.650 OA
BRANCH  47  49
HETATM   49  O   UNK     0       1.670  10.408  30.843  0.00  0.00    -0.776 OA
HETATM   50  H   UNK     0       1.855   9.576  30.269  0.00  0.00     0.167 HD
ENDBRANCH  47  49
ENDBRANCH  46  47
ENDBRANCH  45  46
ENDBRANCH  11  45
BRANCH  18  51
HETATM   51  C   UNK     0       1.944   1.669  34.360  0.00  0.00     0.051 C 
BRANCH  51  52
HETATM   52  C   UNK     0       2.089   1.335  35.838  0.00  0.00     0.114 C 
BRANCH  52  53
HETATM   53  C   UNK     0       2.573  -0.044  36.044  0.00  0.00     0.139 C 
HETATM   54  O   UNK     0       1.866  -1.007  35.709  0.00  0.00    -0.650 OA
BRANCH  53  55
HETATM   55  O   UNK     0       3.807  -0.253  36.612  0.00  0.00    -0.776 OA
HETATM   56  H   UNK     0       4.566  -0.738  36.196  0.00  0.00     0.167 HD
ENDBRANCH  53  55
ENDBRANCH  52  53
ENDBRANCH  51  52
ENDBRANCH  18  51
TORSDOF 16
ENDMDL
MODEL 14
REMARK VINA RESULT:      -8.0      2.244      7.616
REMARK  16 active torsions:
REMARK  status: ('A' for Active; 'I' for Inactive)
REMARK    1  A    between atoms: C_6  and  C_7 
REMARK    2  A    between atoms: C_7  and  C_8 
REMARK    3  A    between atoms: C_8  and  C_9 
REMARK    4  A    between atoms: C_9  and  O_11 
REMARK    5  A    between atoms: C_16  and  C_17 
REMARK    6  A    between atoms: C_17  and  C_18 
REMARK    7  A    between atoms: C_18  and  C_19 
REMARK    8  A    between atoms: C_19  and  O_21 
REMARK    9  A    between atoms: C_28  and  C_29 
REMARK   10  A    between atoms: C_29  and  C_30 
REMARK   11  A    between atoms: C_30  and  C_31 
REMARK   12  A    between atoms: C_31  and  O_33 
REMARK   13  A    between atoms: C_42  and  C_43 
REMARK   14  A    between atoms: C_43  and  C_44 
REMARK   15  A    between atoms: C_44  and  C_45 
REMARK   16  A    between atoms: C_45  and  O_47 
ROOT
HETATM    1  C   UNK     0       4.331  10.687  46.536  0.00  0.00     0.051 C 
HETATM    2  C   UNK     0       4.051  10.316  45.094  0.00  0.00    -0.031 A 
HETATM    3  C   UNK     0       4.660   9.359  44.298  0.00  0.00     0.021 A 
HETATM    4  N   UNK     0       4.108   9.396  43.062  0.00  0.00    -0.361 N 
HETATM    5  C   UNK     0       3.154  10.351  43.055  0.00  0.00     0.022 A 
HETATM    6  C   UNK     0       3.094  10.948  44.310  0.00  0.00    -0.027 A 
HETATM    7  C   UNK     0       2.192  10.727  41.973  0.00  0.00     0.115 C 
HETATM    8  C   UNK     0       1.542   9.586  41.211  0.00  0.00     0.021 A 
HETATM    9  N   UNK     0       1.158   8.385  41.671  0.00  0.00    -0.361 N 
HETATM   10  C   UNK     0       0.716   7.657  40.624  0.00  0.00     0.022 A 
HETATM   11  C   UNK     0       0.809   8.412  39.459  0.00  0.00    -0.027 A 
HETATM   12  C   UNK     0       1.328   9.629  39.821  0.00  0.00    -0.031 A 
HETATM   13  C   UNK     0       1.602  10.779  38.878  0.00  0.00     0.051 C 
HETATM   14  C   UNK     0       0.239   6.208  40.671  0.00  0.00     0.115 C 
HETATM   15  C   UNK     0       1.299   5.226  41.145  0.00  0.00     0.021 A 
HETATM   16  N   UNK     0       1.959   5.233  42.319  0.00  0.00    -0.361 N 
HETATM   17  C   UNK     0       2.858   4.247  42.323  0.00  0.00     0.022 A 
HETATM   18  C   UNK     0       2.773   3.558  41.096  0.00  0.00    -0.027 A 
HETATM   19  C   UNK     0       1.793   4.180  40.369  0.00  0.00    -0.031 A 
HETATM   20  C   UNK     0       1.352   3.730  38.988  0.00  0.00     0.051 C 
HETATM   21  C   UNK     0       3.889   3.876  43.364  0.00  0.00     0.115 C 
HETATM   22  C   UNK     0       4.512   4.998  44.160  0.00  0.00     0.022 A 
HETATM   23  N   UNK     0       4.900   6.205  43.729  0.00  0.00    -0.361 N 
HETATM   24  C   UNK     0       5.264   6.940  44.799  0.00  0.00     0.021 A 
HETATM   25  C   UNK     0       5.116   6.185  45.947  0.00  0.00    -0.031 A 
HETATM   26  C   UNK     0       5.432   6.556  47.380  0.00  0.00     0.051 C 
HETATM   27  C   UNK     0       4.636   4.938  45.563  0.00  0.00    -0.027 A 
HETATM   28  C   UNK     0       5.689   8.398  44.825  0.00  0.00     0.115 C 
HETATM   29  H   UNK     0       4.423   8.776  42.191  0.00  0.00     0.165 HD
HETATM   30  H   UNK     0       1.151   8.066  42.742  0.00  0.00     0.165 HD
HETATM   31  H   UNK     0       1.753   5.919  43.182  0.00  0.00     0.165 HD
HETATM   32  H   UNK     0       4.963   6.536  42.660  0.00  0.00     0.165 HD
ENDROOT
BRANCH   6  33
HETATM   33  C   UNK     0       2.210  12.060  44.814  0.00  0.00     0.051 C 
BRANCH  33  34
HETATM   34  C   UNK     0       2.787  13.408  44.452  0.00  0.00     0.114 C 
BRANCH  34  35
HETATM   35  C   UNK     0       3.169  14.086  45.723  0.00  0.00     0.139 C 
HETATM   36  O   UNK     0       4.361  14.470  45.908  0.00  0.00    -0.650 OA
BRANCH  35  37
HETATM   37  O   UNK     0       2.259  14.329  46.746  0.00  0.00    -0.776 OA
HETATM   38  H   UNK     0       1.513  14.999  46.650  0.00  0.00     0.167 HD
ENDBRANCH  35  37
ENDBRANCH  34  35
ENDBRANCH  33  34
ENDBRANCH   6  33
BRANCH  27  39
HETATM   39  C   UNK     0       4.417   3.822  46.524  0.00  0.00     0.051 C 
BRANCH  39  40
HETATM   40  C   UNK     0       5.332   2.682  46.483  0.00  0.00     0.114 C 
BRANCH  40  41
HETATM   41  C   UNK     0       4.859   1.316  46.433  0.00  0.00     0.139 C 
HETATM   42  O   UNK     0       5.549   0.342  46.761  0.00  0.00    -0.650 OA
BRANCH  41  43
HETATM   43  O   UNK     0       3.531   1.060  45.987  0.00  0.00    -0.776 OA
HETATM   44  H   UNK     0       3.413   1.096  44.982  0.00  0.00     0.167 HD
ENDBRANCH  41  43
ENDBRANCH  40  41
ENDBRANCH  39  40
ENDBRANCH  27  39
BRANCH  11  45
HETATM   45  C   UNK     0       0.428   8.028  38.054  0.00  0.00     0.051 C 
BRANCH  45  46
HETATM   46  C   UNK     0       1.466   7.243  37.339  0.00  0.00     0.114 C 
BRANCH  46  47
HETATM   47  C   UNK     0       1.678   7.895  36.015  0.00  0.00     0.139 C 
HETATM   48  O   UNK     0       1.226   7.342  35.002  0.00  0.00    -0.650 OA
BRANCH  47  49
HETATM   49  O   UNK     0       2.361   9.082  35.918  0.00  0.00    -0.776 OA
HETATM   50  H   UNK     0       2.992   9.410  36.659  0.00  0.00     0.167 HD
ENDBRANCH  47  49
ENDBRANCH  46  47
ENDBRANCH  45  46
ENDBRANCH  11  45
BRANCH  18  51
HETATM   51  C   UNK     0       3.569   2.358  40.651  0.00  0.00     0.051 C 
BRANCH  51  52
HETATM   52  C   UNK     0       2.836   1.138  41.188  0.00  0.00     0.114 C 
BRANCH  52  53
HETATM   53  C   UNK     0       2.471   0.198  40.110  0.00  0.00     0.139 C 
HETATM   54  O   UNK     0       1.923  -0.881  40.385  0.00  0.00    -0.650 OA
BRANCH  53  55
HETATM   55  O   UNK     0       2.744   0.523  38.803  0.00  0.00    -0.776 OA
HETATM   56  H   UNK     0       2.650  -0.079  38.020  0.00  0.00     0.167 HD
ENDBRANCH  53  55
ENDBRANCH  52  53
ENDBRANCH  51  52
ENDBRANCH  18  51
TORSDOF 16
ENDMDL
MODEL 15
REMARK VINA RESULT:      -7.9     10.717     15.508
REMARK  16 active torsions:
REMARK  status: ('A' for Active; 'I' for Inactive)
REMARK    1  A    between atoms: C_6  and  C_7 
REMARK    2  A    between atoms: C_7  and  C_8 
REMARK    3  A    between atoms: C_8  and  C_9 
REMARK    4  A    between atoms: C_9  and  O_11 
REMARK    5  A    between atoms: C_16  and  C_17 
REMARK    6  A    between atoms: C_17  and  C_18 
REMARK    7  A    between atoms: C_18  and  C_19 
REMARK    8  A    between atoms: C_19  and  O_21 
REMARK    9  A    between atoms: C_28  and  C_29 
REMARK   10  A    between atoms: C_29  and  C_30 
REMARK   11  A    between atoms: C_30  and  C_31 
REMARK   12  A    between atoms: C_31  and  O_33 
REMARK   13  A    between atoms: C_42  and  C_43 
REMARK   14  A    between atoms: C_43  and  C_44 
REMARK   15  A    between atoms: C_44  and  C_45 
REMARK   16  A    between atoms: C_45  and  O_47 
ROOT
HETATM    1  C   UNK     0       3.850  12.005  29.696  0.00  0.00     0.051 C 
HETATM    2  C   UNK     0       3.396  10.664  30.236  0.00  0.00    -0.031 A 
HETATM    3  C   UNK     0       3.356   9.430  29.607  0.00  0.00     0.021 A 
HETATM    4  N   UNK     0       2.847   8.514  30.465  0.00  0.00    -0.361 N 
HETATM    5  C   UNK     0       2.569   9.136  31.629  0.00  0.00     0.022 A 
HETATM    6  C   UNK     0       2.898  10.483  31.520  0.00  0.00    -0.027 A 
HETATM    7  C   UNK     0       2.081   8.561  32.923  0.00  0.00     0.115 C 
HETATM    8  C   UNK     0       2.715   7.256  33.371  0.00  0.00     0.021 A 
HETATM    9  N   UNK     0       3.985   6.848  33.220  0.00  0.00    -0.361 N 
HETATM   10  C   UNK     0       4.077   5.585  33.687  0.00  0.00     0.022 A 
HETATM   11  C   UNK     0       2.836   5.172  34.161  0.00  0.00    -0.027 A 
HETATM   12  C   UNK     0       1.973   6.220  33.965  0.00  0.00    -0.031 A 
HETATM   13  C   UNK     0       0.507   6.226  34.336  0.00  0.00     0.051 C 
HETATM   14  C   UNK     0       5.322   4.702  33.657  0.00  0.00     0.115 C 
HETATM   15  C   UNK     0       5.844   4.420  32.258  0.00  0.00     0.021 A 
HETATM   16  N   UNK     0       6.241   5.315  31.334  0.00  0.00    -0.361 N 
HETATM   17  C   UNK     0       6.562   4.672  30.209  0.00  0.00     0.022 A 
HETATM   18  C   UNK     0       6.375   3.290  30.413  0.00  0.00    -0.027 A 
HETATM   19  C   UNK     0       5.926   3.146  31.700  0.00  0.00    -0.031 A 
HETATM   20  C   UNK     0       5.631   1.804  32.346  0.00  0.00     0.051 C 
HETATM   21  C   UNK     0       6.994   5.217  28.867  0.00  0.00     0.115 C 
HETATM   22  C   UNK     0       6.405   6.537  28.428  0.00  0.00     0.022 A 
HETATM   23  N   UNK     0       5.146   6.971  28.569  0.00  0.00    -0.361 N 
HETATM   24  C   UNK     0       5.094   8.258  28.169  0.00  0.00     0.021 A 
HETATM   25  C   UNK     0       6.349   8.658  27.750  0.00  0.00    -0.031 A 
HETATM   26  C   UNK     0       6.782   9.992  27.179  0.00  0.00     0.051 C 
HETATM   27  C   UNK     0       7.204   7.574  27.906  0.00  0.00    -0.027 A 
HETATM   28  C   UNK     0       3.907   9.203  28.228  0.00  0.00     0.115 C 
HETATM   29  H   UNK     0       2.650   7.442  30.228  0.00  0.00     0.165 HD
HETATM   30  H   UNK     0       4.829   7.466  32.829  0.00  0.00     0.165 HD
HETATM   31  H   UNK     0       6.342   6.421  31.493  0.00  0.00     0.165 HD
HETATM   32  H   UNK     0       4.271   6.360  28.912  0.00  0.00     0.165 HD
ENDROOT
BRANCH   6  33
HETATM   33  C   UNK     0       2.774  11.596  32.529  0.00  0.00     0.051 C 
BRANCH  33  34
HETATM   34  C   UNK     0       1.392  12.203  32.489  0.00  0.00     0.114 C 
BRANCH  34  35
HETATM   35  C   UNK     0       1.556  13.675  32.309  0.00  0.00     0.139 C 
HETATM   36  O   UNK     0       2.712  14.190  32.294  0.00  0.00    -0.650 OA
BRANCH  35  37
HETATM   37  O   UNK     0       0.476  14.535  32.151  0.00  0.00    -0.776 OA
HETATM   38  H   UNK     0       0.430  15.426  32.617  0.00  0.00     0.167 HD
ENDBRANCH  35  37
ENDBRANCH  34  35
ENDBRANCH  33  34
ENDBRANCH   6  33
BRANCH  27  39
HETATM   39  C   UNK     0       8.633   7.602  27.491  0.00  0.00     0.051 C 
BRANCH  39  40
HETATM   40  C   UNK     0       9.631   8.032  28.470  0.00  0.00     0.114 C 
BRANCH  40  41
HETATM   41  C   UNK     0       9.314   8.206  29.869  0.00  0.00     0.139 C 
HETATM   42  O   UNK     0       9.014   9.298  30.371  0.00  0.00    -0.650 OA
BRANCH  41  43
HETATM   43  O   UNK     0       9.342   7.072  30.730  0.00  0.00    -0.776 OA
HETATM   44  H   UNK     0      10.166   7.011  31.316  0.00  0.00     0.167 HD
ENDBRANCH  41  43
ENDBRANCH  40  41
ENDBRANCH  39  40
ENDBRANCH  27  39
BRANCH  11  45
HETATM   45  C   UNK     0       2.455   3.853  34.779  0.00  0.00     0.051 C 
BRANCH  45  46
HETATM   46  C   UNK     0       1.988   2.838  33.800  0.00  0.00     0.114 C 
BRANCH  46  47
HETATM   47  C   UNK     0       2.388   1.501  34.327  0.00  0.00     0.139 C 
HETATM   48  O   UNK     0       3.129   1.452  35.318  0.00  0.00    -0.650 OA
BRANCH  47  49
HETATM   49  O   UNK     0       1.946   0.349  33.727  0.00  0.00    -0.776 OA
HETATM   50  H   UNK     0       1.574   0.340  32.770  0.00  0.00     0.167 HD
ENDBRANCH  47  49
ENDBRANCH  46  47
ENDBRANCH  45  46
ENDBRANCH  11  45
BRANCH  18  51
HETATM   51  C   UNK     0       6.630   2.167  29.442  0.00  0.00     0.051 C 
BRANCH  51  52
HETATM   52  C   UNK     0       8.097   1.795  29.597  0.00  0.00     0.114 C 
BRANCH  52  53
HETATM   53  C   UNK     0       8.275   0.350  29.839  0.00  0.00     0.139 C 
HETATM   54  O   UNK     0       8.282  -0.089  31.000  0.00  0.00    -0.650 OA
BRANCH  53  55
HETATM   55  O   UNK     0       8.435  -0.503  28.774  0.00  0.00    -0.776 OA
HETATM   56  H   UNK     0       9.301  -0.819  28.405  0.00  0.00     0.167 HD
ENDBRANCH  53  55
ENDBRANCH  52  53
ENDBRANCH  51  52
ENDBRANCH  18  51
TORSDOF 16
ENDMDL
MODEL 16
REMARK VINA RESULT:      -7.8     29.828     33.407
REMARK  16 active torsions:
REMARK  status: ('A' for Active; 'I' for Inactive)
REMARK    1  A    between atoms: C_6  and  C_7 
REMARK    2  A    between atoms: C_7  and  C_8 
REMARK    3  A    between atoms: C_8  and  C_9 
REMARK    4  A    between atoms: C_9  and  O_11 
REMARK    5  A    between atoms: C_16  and  C_17 
REMARK    6  A    between atoms: C_17  and  C_18 
REMARK    7  A    between atoms: C_18  and  C_19 
REMARK    8  A    between atoms: C_19  and  O_21 
REMARK    9  A    between atoms: C_28  and  C_29 
REMARK   10  A    between atoms: C_29  and  C_30 
REMARK   11  A    between atoms: C_30  and  C_31 
REMARK   12  A    between atoms: C_31  and  O_33 
REMARK   13  A    between atoms: C_42  and  C_43 
REMARK   14  A    between atoms: C_43  and  C_44 
REMARK   15  A    between atoms: C_44  and  C_45 
REMARK   16  A    between atoms: C_45  and  O_47 
ROOT
HETATM    1  C   UNK     0      34.413  -2.505  46.622  0.00  0.00     0.051 C 
HETATM    2  C   UNK     0      34.342  -2.213  45.137  0.00  0.00    -0.031 A 
HETATM    3  C   UNK     0      35.079  -2.757  44.098  0.00  0.00     0.021 A 
HETATM    4  N   UNK     0      34.700  -2.175  42.935  0.00  0.00    -0.361 N 
HETATM    5  C   UNK     0      33.731  -1.277  43.211  0.00  0.00     0.022 A 
HETATM    6  C   UNK     0      33.485  -1.273  44.580  0.00  0.00    -0.027 A 
HETATM    7  C   UNK     0      32.915  -0.440  42.276  0.00  0.00     0.115 C 
HETATM    8  C   UNK     0      32.406  -1.123  41.018  0.00  0.00     0.021 A 
HETATM    9  N   UNK     0      31.995  -2.391  40.863  0.00  0.00    -0.361 N 
HETATM   10  C   UNK     0      31.719  -2.585  39.556  0.00  0.00     0.022 A 
HETATM   11  C   UNK     0      31.949  -1.407  38.851  0.00  0.00    -0.027 A 
HETATM   12  C   UNK     0      32.382  -0.481  39.767  0.00  0.00    -0.031 A 
HETATM   13  C   UNK     0      32.751   0.951  39.454  0.00  0.00     0.051 C 
HETATM   14  C   UNK     0      31.279  -3.897  38.913  0.00  0.00     0.115 C 
HETATM   15  C   UNK     0      32.290  -5.023  39.058  0.00  0.00     0.021 A 
HETATM   16  N   UNK     0      32.783  -5.542  40.198  0.00  0.00    -0.361 N 
HETATM   17  C   UNK     0      33.699  -6.466  39.899  0.00  0.00     0.022 A 
HETATM   18  C   UNK     0      33.801  -6.560  38.497  0.00  0.00    -0.027 A 
HETATM   19  C   UNK     0      32.913  -5.652  37.982  0.00  0.00    -0.031 A 
HETATM   20  C   UNK     0      32.676  -5.453  36.496  0.00  0.00     0.051 C 
HETATM   21  C   UNK     0      34.589  -7.282  40.809  0.00  0.00     0.115 C 
HETATM   22  C   UNK     0      35.067  -6.631  42.085  0.00  0.00     0.022 A 
HETATM   23  N   UNK     0      35.478  -5.370  42.270  0.00  0.00    -0.361 N 
HETATM   24  C   UNK     0      35.673  -5.177  43.590  0.00  0.00     0.021 A 
HETATM   25  C   UNK     0      35.390  -6.345  44.271  0.00  0.00    -0.031 A 
HETATM   26  C   UNK     0      35.498  -6.635  45.754  0.00  0.00     0.051 C 
HETATM   27  C   UNK     0      35.000  -7.291  43.329  0.00  0.00    -0.027 A 
HETATM   28  C   UNK     0      36.052  -3.886  44.295  0.00  0.00     0.115 C 
HETATM   29  H   UNK     0      35.147  -2.374  41.934  0.00  0.00     0.165 HD
HETATM   30  H   UNK     0      31.850  -3.137  41.682  0.00  0.00     0.165 HD
HETATM   31  H   UNK     0      32.444  -5.286  41.236  0.00  0.00     0.165 HD
HETATM   32  H   UNK     0      35.677  -4.616  41.465  0.00  0.00     0.165 HD
ENDROOT
BRANCH   6  33
HETATM   33  C   UNK     0      32.511  -0.454  45.387  0.00  0.00     0.051 C 
BRANCH  33  34
HETATM   34  C   UNK     0      32.924   0.999  45.410  0.00  0.00     0.114 C 
BRANCH  34  35
HETATM   35  C   UNK     0      31.788   1.795  44.862  0.00  0.00     0.139 C 
HETATM   36  O   UNK     0      31.967   2.560  43.870  0.00  0.00    -0.650 OA
BRANCH  35  37
HETATM   37  O   UNK     0      30.507   1.738  45.396  0.00  0.00    -0.776 OA
HETATM   38  H   UNK     0      29.703   2.078  44.893  0.00  0.00     0.167 HD
ENDBRANCH  35  37
ENDBRANCH  34  35
ENDBRANCH  33  34
ENDBRANCH   6  33
BRANCH  27  39
HETATM   39  C   UNK     0      34.683  -8.702  43.680  0.00  0.00     0.051 C 
BRANCH  39  40
HETATM   40  C   UNK     0      33.278  -9.103  43.740  0.00  0.00     0.114 C 
BRANCH  40  41
HETATM   41  C   UNK     0      32.758 -10.208  42.967  0.00  0.00     0.139 C 
HETATM   42  O   UNK     0      31.919 -11.010  43.399  0.00  0.00    -0.650 OA
BRANCH  41  43
HETATM   43  O   UNK     0      33.226 -10.401  41.636  0.00  0.00    -0.776 OA
HETATM   44  H   UNK     0      32.642  -9.982  40.922  0.00  0.00     0.167 HD
ENDBRANCH  41  43
ENDBRANCH  40  41
ENDBRANCH  39  40
ENDBRANCH  27  39
BRANCH  11  45
HETATM   45  C   UNK     0      31.774  -1.139  37.381  0.00  0.00     0.051 C 
BRANCH  45  46
HETATM   46  C   UNK     0      30.451  -0.567  37.022  0.00  0.00     0.114 C 
BRANCH  46  47
HETATM   47  C   UNK     0      29.873  -1.428  35.951  0.00  0.00     0.139 C 
HETATM   48  O   UNK     0      29.482  -2.564  36.251  0.00  0.00    -0.650 OA
BRANCH  47  49
HETATM   49  O   UNK     0      29.777  -0.973  34.660  0.00  0.00    -0.776 OA
HETATM   50  H   UNK     0      30.175  -1.492  33.868  0.00  0.00     0.167 HD
ENDBRANCH  47  49
ENDBRANCH  46  47
ENDBRANCH  45  46
ENDBRANCH  11  45
BRANCH  18  51
HETATM   51  C   UNK     0      34.682  -7.480  37.692  0.00  0.00     0.051 C 
BRANCH  51  52
HETATM   52  C   UNK     0      36.058  -6.832  37.659  0.00  0.00     0.114 C 
BRANCH  52  53
HETATM   53  C   UNK     0      36.426  -6.391  36.300  0.00  0.00     0.139 C 
HETATM   54  O   UNK     0      35.587  -5.823  35.583  0.00  0.00    -0.650 OA
BRANCH  53  55
HETATM   55  O   UNK     0      37.698  -6.615  35.834  0.00  0.00    -0.776 OA
HETATM   56  H   UNK     0      37.939  -6.941  34.928  0.00  0.00     0.167 HD
ENDBRANCH  53  55
ENDBRANCH  52  53
ENDBRANCH  51  52
ENDBRANCH  18  51
TORSDOF 16
ENDMDL
MODEL 17
REMARK VINA RESULT:      -7.6      2.815      7.169
REMARK  16 active torsions:
REMARK  status: ('A' for Active; 'I' for Inactive)
REMARK    1  A    between atoms: C_6  and  C_7 
REMARK    2  A    between atoms: C_7  and  C_8 
REMARK    3  A    between atoms: C_8  and  C_9 
REMARK    4  A    between atoms: C_9  and  O_11 
REMARK    5  A    between atoms: C_16  and  C_17 
REMARK    6  A    between atoms: C_17  and  C_18 
REMARK    7  A    between atoms: C_18  and  C_19 
REMARK    8  A    between atoms: C_19  and  O_21 
REMARK    9  A    between atoms: C_28  and  C_29 
REMARK   10  A    between atoms: C_29  and  C_30 
REMARK   11  A    between atoms: C_30  and  C_31 
REMARK   12  A    between atoms: C_31  and  O_33 
REMARK   13  A    between atoms: C_42  and  C_43 
REMARK   14  A    between atoms: C_43  and  C_44 
REMARK   15  A    between atoms: C_44  and  C_45 
REMARK   16  A    between atoms: C_45  and  O_47 
ROOT
HETATM    1  C   UNK     0       4.433   7.740  46.809  0.00  0.00     0.051 C 
HETATM    2  C   UNK     0       4.143   7.877  45.328  0.00  0.00    -0.031 A 
HETATM    3  C   UNK     0       4.627   7.131  44.264  0.00  0.00     0.021 A 
HETATM    4  N   UNK     0       4.122   7.629  43.111  0.00  0.00    -0.361 N 
HETATM    5  C   UNK     0       3.321   8.670  43.416  0.00  0.00     0.022 A 
HETATM    6  C   UNK     0       3.313   8.855  44.795  0.00  0.00    -0.027 A 
HETATM    7  C   UNK     0       2.456   9.501  42.521  0.00  0.00     0.115 C 
HETATM    8  C   UNK     0       1.667   8.760  41.456  0.00  0.00     0.021 A 
HETATM    9  N   UNK     0       1.096   7.548  41.530  0.00  0.00    -0.361 N 
HETATM   10  C   UNK     0       0.581   7.252  40.318  0.00  0.00     0.022 A 
HETATM   11  C   UNK     0       0.818   8.306  39.441  0.00  0.00    -0.027 A 
HETATM   12  C   UNK     0       1.502   9.260  40.152  0.00  0.00    -0.031 A 
HETATM   13  C   UNK     0       1.969  10.590  39.604  0.00  0.00     0.051 C 
HETATM   14  C   UNK     0      -0.105   5.947  39.925  0.00  0.00     0.115 C 
HETATM   15  C   UNK     0       0.783   4.720  40.054  0.00  0.00     0.021 A 
HETATM   16  N   UNK     0       1.402   4.267  41.160  0.00  0.00    -0.361 N 
HETATM   17  C   UNK     0       2.145   3.204  40.843  0.00  0.00     0.022 A 
HETATM   18  C   UNK     0       1.995   2.947  39.465  0.00  0.00    -0.027 A 
HETATM   19  C   UNK     0       1.139   3.902  38.983  0.00  0.00    -0.031 A 
HETATM   20  C   UNK     0       0.676   3.969  37.539  0.00  0.00     0.051 C 
HETATM   21  C   UNK     0       3.080   2.381  41.700  0.00  0.00     0.115 C 
HETATM   22  C   UNK     0       3.838   3.098  42.792  0.00  0.00     0.022 A 
HETATM   23  N   UNK     0       4.413   4.306  42.747  0.00  0.00    -0.361 N 
HETATM   24  C   UNK     0       4.851   4.613  43.985  0.00  0.00     0.021 A 
HETATM   25  C   UNK     0       4.559   3.573  44.845  0.00  0.00    -0.031 A 
HETATM   26  C   UNK     0       4.885   3.434  46.318  0.00  0.00     0.051 C 
HETATM   27  C   UNK     0       3.911   2.591  44.105  0.00  0.00    -0.027 A 
HETATM   28  C   UNK     0       5.486   5.912  44.450  0.00  0.00     0.115 C 
HETATM   29  H   UNK     0       4.367   7.266  42.085  0.00  0.00     0.165 HD
HETATM   30  H   UNK     0       1.011   6.920  42.451  0.00  0.00     0.165 HD
HETATM   31  H   UNK     0       1.276   4.676  42.196  0.00  0.00     0.165 HD
HETATM   32  H   UNK     0       4.555   4.937  41.830  0.00  0.00     0.165 HD
ENDROOT
BRANCH   6  33
HETATM   33  C   UNK     0       2.589   9.877  45.633  0.00  0.00     0.051 C 
BRANCH  33  34
HETATM   34  C   UNK     0       3.437  11.113  45.821  0.00  0.00     0.114 C 
BRANCH  34  35
HETATM   35  C   UNK     0       2.569  12.295  45.553  0.00  0.00     0.139 C 
HETATM   36  O   UNK     0       1.964  12.404  44.447  0.00  0.00    -0.650 OA
BRANCH  35  37
HETATM   37  O   UNK     0       2.381  13.313  46.481  0.00  0.00    -0.776 OA
HETATM   38  H   UNK     0       2.457  13.152  47.472  0.00  0.00     0.167 HD
ENDBRANCH  35  37
ENDBRANCH  34  35
ENDBRANCH  33  34
ENDBRANCH   6  33
BRANCH  27  39
HETATM   39  C   UNK     0       3.503   1.280  44.679  0.00  0.00     0.051 C 
BRANCH  39  40
HETATM   40  C   UNK     0       4.414   0.617  45.612  0.00  0.00     0.114 C 
BRANCH  40  41
HETATM   41  C   UNK     0       4.524  -0.823  45.689  0.00  0.00     0.139 C 
HETATM   42  O   UNK     0       5.023  -1.419  46.653  0.00  0.00    -0.650 OA
BRANCH  41  43
HETATM   43  O   UNK     0       4.038  -1.612  44.608  0.00  0.00    -0.776 OA
HETATM   44  H   UNK     0       3.077  -1.916  44.710  0.00  0.00     0.167 HD
ENDBRANCH  41  43
ENDBRANCH  40  41
ENDBRANCH  39  40
ENDBRANCH  27  39
BRANCH  11  45
HETATM   45  C   UNK     0       0.426   8.434  37.994  0.00  0.00     0.051 C 
BRANCH  45  46
HETATM   46  C   UNK     0       1.386   7.811  37.048  0.00  0.00     0.114 C 
BRANCH  46  47
HETATM   47  C   UNK     0       1.710   8.831  36.011  0.00  0.00     0.139 C 
HETATM   48  O   UNK     0       2.256   8.459  34.963  0.00  0.00    -0.650 OA
BRANCH  47  49
HETATM   49  O   UNK     0       1.412  10.156  36.211  0.00  0.00    -0.776 OA
HETATM   50  H   UNK     0       1.508  10.603  37.130  0.00  0.00     0.167 HD
ENDBRANCH  47  49
ENDBRANCH  46  47
ENDBRANCH  45  46
ENDBRANCH  11  45
BRANCH  18  51
HETATM   51  C   UNK     0       2.617   1.837  38.657  0.00  0.00     0.051 C 
BRANCH  51  52
HETATM   52  C   UNK     0       1.962   0.548  39.129  0.00  0.00     0.114 C 
BRANCH  52  53
HETATM   53  C   UNK     0       0.548   0.466  38.714  0.00  0.00     0.139 C 
HETATM   54  O   UNK     0       0.258   0.386  37.509  0.00  0.00    -0.650 OA
BRANCH  53  55
HETATM   55  O   UNK     0      -0.442   0.482  39.666  0.00  0.00    -0.776 OA
HETATM   56  H   UNK     0      -0.325   0.707  40.626  0.00  0.00     0.167 HD
ENDBRANCH  53  55
ENDBRANCH  52  53
ENDBRANCH  51  52
ENDBRANCH  18  51
TORSDOF 16
ENDMDL
MODEL 18
REMARK VINA RESULT:      -7.5     16.261     21.464
REMARK  16 active torsions:
REMARK  status: ('A' for Active; 'I' for Inactive)
REMARK    1  A    between atoms: C_6  and  C_7 
REMARK    2  A    between atoms: C_7  and  C_8 
REMARK    3  A    between atoms: C_8  and  C_9 
REMARK    4  A    between atoms: C_9  and  O_11 
REMARK    5  A    between atoms: C_16  and  C_17 
REMARK    6  A    between atoms: C_17  and  C_18 
REMARK    7  A    between atoms: C_18  and  C_19 
REMARK    8  A    between atoms: C_19  and  O_21 
REMARK    9  A    between atoms: C_28  and  C_29 
REMARK   10  A    between atoms: C_29  and  C_30 
REMARK   11  A    between atoms: C_30  and  C_31 
REMARK   12  A    between atoms: C_31  and  O_33 
REMARK   13  A    between atoms: C_42  and  C_43 
REMARK   14  A    between atoms: C_43  and  C_44 
REMARK   15  A    between atoms: C_44  and  C_45 
REMARK   16  A    between atoms: C_45  and  O_47 
ROOT
HETATM    1  C   UNK     0      11.696  -3.435  45.901  0.00  0.00     0.051 C 
HETATM    2  C   UNK     0      12.447  -4.692  46.292  0.00  0.00    -0.031 A 
HETATM    3  C   UNK     0      12.777  -5.795  45.522  0.00  0.00     0.021 A 
HETATM    4  N   UNK     0      13.425  -6.697  46.297  0.00  0.00    -0.361 N 
HETATM    5  C   UNK     0      13.522  -6.189  47.543  0.00  0.00     0.022 A 
HETATM    6  C   UNK     0      12.918  -4.936  47.576  0.00  0.00    -0.027 A 
HETATM    7  C   UNK     0      14.223  -6.740  48.745  0.00  0.00     0.115 C 
HETATM    8  C   UNK     0      15.595  -7.349  48.513  0.00  0.00     0.021 A 
HETATM    9  N   UNK     0      16.548  -6.960  47.652  0.00  0.00    -0.361 N 
HETATM   10  C   UNK     0      17.563  -7.847  47.722  0.00  0.00     0.022 A 
HETATM   11  C   UNK     0      17.260  -8.829  48.660  0.00  0.00    -0.027 A 
HETATM   12  C   UNK     0      16.021  -8.522  49.163  0.00  0.00    -0.031 A 
HETATM   13  C   UNK     0      15.285  -9.314  50.220  0.00  0.00     0.051 C 
HETATM   14  C   UNK     0      18.831  -7.834  46.872  0.00  0.00     0.115 C 
HETATM   15  C   UNK     0      18.573  -7.963  45.380  0.00  0.00     0.021 A 
HETATM   16  N   UNK     0      17.831  -7.153  44.601  0.00  0.00    -0.361 N 
HETATM   17  C   UNK     0      17.796  -7.648  43.362  0.00  0.00     0.022 A 
HETATM   18  C   UNK     0      18.559  -8.832  43.329  0.00  0.00    -0.027 A 
HETATM   19  C   UNK     0      19.042  -9.017  44.598  0.00  0.00    -0.031 A 
HETATM   20  C   UNK     0      19.950 -10.167  44.996  0.00  0.00     0.051 C 
HETATM   21  C   UNK     0      17.049  -7.160  42.142  0.00  0.00     0.115 C 
HETATM   22  C   UNK     0      15.702  -6.512  42.361  0.00  0.00     0.022 A 
HETATM   23  N   UNK     0      14.735  -6.875  43.214  0.00  0.00    -0.361 N 
HETATM   24  C   UNK     0      13.769  -5.935  43.185  0.00  0.00     0.021 A 
HETATM   25  C   UNK     0      14.117  -4.948  42.283  0.00  0.00    -0.031 A 
HETATM   26  C   UNK     0      13.341  -3.713  41.875  0.00  0.00     0.051 C 
HETATM   27  C   UNK     0      15.350  -5.295  41.743  0.00  0.00    -0.027 A 
HETATM   28  C   UNK     0      12.518  -5.861  44.043  0.00  0.00     0.115 C 
HETATM   29  H   UNK     0      13.773  -7.704  45.969  0.00  0.00     0.165 HD
HETATM   30  H   UNK     0      16.529  -6.032  47.030  0.00  0.00     0.165 HD
HETATM   31  H   UNK     0      17.361  -6.187  44.921  0.00  0.00     0.165 HD
HETATM   32  H   UNK     0      14.706  -7.822  43.814  0.00  0.00     0.165 HD
ENDROOT
BRANCH   6  33
HETATM   33  C   UNK     0      12.754  -3.968  48.720  0.00  0.00     0.051 C 
BRANCH  33  34
HETATM   34  C   UNK     0      11.364  -4.059  49.304  0.00  0.00     0.114 C 
BRANCH  34  35
HETATM   35  C   UNK     0      11.413  -5.044  50.423  0.00  0.00     0.139 C 
HETATM   36  O   UNK     0      11.004  -6.228  50.248  0.00  0.00    -0.650 OA
BRANCH  35  37
HETATM   37  O   UNK     0      11.901  -4.721  51.683  0.00  0.00    -0.776 OA
HETATM   38  H   UNK     0      12.764  -4.217  51.809  0.00  0.00     0.167 HD
ENDBRANCH  35  37
ENDBRANCH  34  35
ENDBRANCH  33  34
ENDBRANCH   6  33
BRANCH  27  39
HETATM   39  C   UNK     0      16.019  -4.502  40.676  0.00  0.00     0.051 C 
BRANCH  39  40
HETATM   40  C   UNK     0      17.239  -3.770  41.016  0.00  0.00     0.114 C 
BRANCH  40  41
HETATM   41  C   UNK     0      17.300  -2.326  40.999  0.00  0.00     0.139 C 
HETATM   42  O   UNK     0      17.304  -1.654  39.958  0.00  0.00    -0.650 OA
BRANCH  41  43
HETATM   43  O   UNK     0      17.361  -1.622  42.235  0.00  0.00    -0.776 OA
HETATM   44  H   UNK     0      17.308  -0.614  42.146  0.00  0.00     0.167 HD
ENDBRANCH  41  43
ENDBRANCH  40  41
ENDBRANCH  39  40
ENDBRANCH  27  39
BRANCH  11  45
HETATM   45  C   UNK     0      18.086 -10.014  49.084  0.00  0.00     0.051 C 
BRANCH  45  46
HETATM   46  C   UNK     0      18.861  -9.797  50.332  0.00  0.00     0.114 C 
BRANCH  46  47
HETATM   47  C   UNK     0      20.286  -9.604  49.938  0.00  0.00     0.139 C 
HETATM   48  O   UNK     0      20.993 -10.606  49.761  0.00  0.00    -0.650 OA
BRANCH  47  49
HETATM   49  O   UNK     0      20.806  -8.344  49.778  0.00  0.00    -0.776 OA
HETATM   50  H   UNK     0      21.580  -8.153  49.130  0.00  0.00     0.167 HD
ENDBRANCH  47  49
ENDBRANCH  46  47
ENDBRANCH  45  46
ENDBRANCH  11  45
BRANCH  18  51
HETATM   51  C   UNK     0      18.832  -9.725  42.147  0.00  0.00     0.051 C 
BRANCH  51  52
HETATM   52  C   UNK     0      20.030  -9.126  41.427  0.00  0.00     0.114 C 
BRANCH  52  53
HETATM   53  C   UNK     0      21.154 -10.079  41.342  0.00  0.00     0.139 C 
HETATM   54  O   UNK     0      22.037 -10.077  42.214  0.00  0.00    -0.650 OA
BRANCH  53  55
HETATM   55  O   UNK     0      21.217 -10.963  40.292  0.00  0.00    -0.776 OA
HETATM   56  H   UNK     0      20.450 -11.277  39.746  0.00  0.00     0.167 HD
ENDBRANCH  53  55
ENDBRANCH  52  53
ENDBRANCH  51  52
ENDBRANCH  18  51
TORSDOF 16
ENDMDL
MODEL 19
REMARK VINA RESULT:      -7.4     29.689     31.697
REMARK  16 active torsions:
REMARK  status: ('A' for Active; 'I' for Inactive)
REMARK    1  A    between atoms: C_6  and  C_7 
REMARK    2  A    between atoms: C_7  and  C_8 
REMARK    3  A    between atoms: C_8  and  C_9 
REMARK    4  A    between atoms: C_9  and  O_11 
REMARK    5  A    between atoms: C_16  and  C_17 
REMARK    6  A    between atoms: C_17  and  C_18 
REMARK    7  A    between atoms: C_18  and  C_19 
REMARK    8  A    between atoms: C_19  and  O_21 
REMARK    9  A    between atoms: C_28  and  C_29 
REMARK   10  A    between atoms: C_29  and  C_30 
REMARK   11  A    between atoms: C_30  and  C_31 
REMARK   12  A    between atoms: C_31  and  O_33 
REMARK   13  A    between atoms: C_42  and  C_43 
REMARK   14  A    between atoms: C_43  and  C_44 
REMARK   15  A    between atoms: C_44  and  C_45 
REMARK   16  A    between atoms: C_45  and  O_47 
ROOT
HETATM    1  C   UNK     0      21.721 -10.982  58.816  0.00  0.00     0.051 C 
HETATM    2  C   UNK     0      22.812 -10.031  59.266  0.00  0.00    -0.031 A 
HETATM    3  C   UNK     0      24.187 -10.145  59.135  0.00  0.00     0.021 A 
HETATM    4  N   UNK     0      24.776  -9.072  59.713  0.00  0.00    -0.361 N 
HETATM    5  C   UNK     0      23.806  -8.272  60.202  0.00  0.00     0.022 A 
HETATM    6  C   UNK     0      22.565  -8.843  59.942  0.00  0.00    -0.027 A 
HETATM    7  C   UNK     0      23.917  -6.925  60.846  0.00  0.00     0.115 C 
HETATM    8  C   UNK     0      24.886  -5.943  60.211  0.00  0.00     0.021 A 
HETATM    9  N   UNK     0      25.175  -5.777  58.911  0.00  0.00    -0.361 N 
HETATM   10  C   UNK     0      26.159  -4.858  58.815  0.00  0.00     0.022 A 
HETATM   11  C   UNK     0      26.507  -4.413  60.088  0.00  0.00    -0.027 A 
HETATM   12  C   UNK     0      25.709  -5.093  60.972  0.00  0.00    -0.031 A 
HETATM   13  C   UNK     0      25.732  -4.930  62.475  0.00  0.00     0.051 C 
HETATM   14  C   UNK     0      26.845  -4.402  57.531  0.00  0.00     0.115 C 
HETATM   15  C   UNK     0      27.560  -5.518  56.785  0.00  0.00     0.021 A 
HETATM   16  N   UNK     0      27.027  -6.658  56.306  0.00  0.00    -0.361 N 
HETATM   17  C   UNK     0      27.998  -7.407  55.779  0.00  0.00     0.022 A 
HETATM   18  C   UNK     0      29.220  -6.719  55.912  0.00  0.00    -0.027 A 
HETATM   19  C   UNK     0      28.932  -5.536  56.543  0.00  0.00    -0.031 A 
HETATM   20  C   UNK     0      29.967  -4.470  56.852  0.00  0.00     0.051 C 
HETATM   21  C   UNK     0      27.938  -8.795  55.181  0.00  0.00     0.115 C 
HETATM   22  C   UNK     0      26.947  -9.768  55.775  0.00  0.00     0.022 A 
HETATM   23  N   UNK     0      26.636  -9.953  57.064  0.00  0.00    -0.361 N 
HETATM   24  C   UNK     0      25.601 -10.815  57.131  0.00  0.00     0.021 A 
HETATM   25  C   UNK     0      25.244 -11.202  55.854  0.00  0.00    -0.031 A 
HETATM   26  C   UNK     0      24.172 -12.180  55.419  0.00  0.00     0.051 C 
HETATM   27  C   UNK     0      26.091 -10.545  54.968  0.00  0.00    -0.027 A 
HETATM   28  C   UNK     0      24.841 -11.260  58.368  0.00  0.00     0.115 C 
HETATM   29  H   UNK     0      25.874  -8.906  59.807  0.00  0.00     0.165 HD
HETATM   30  H   UNK     0      24.652  -6.269  58.056  0.00  0.00     0.165 HD
HETATM   31  H   UNK     0      25.937  -6.919  56.297  0.00  0.00     0.165 HD
HETATM   32  H   UNK     0      27.174  -9.510  57.943  0.00  0.00     0.165 HD
ENDROOT
BRANCH   6  33
HETATM   33  C   UNK     0      21.181  -8.354  60.285  0.00  0.00     0.051 C 
BRANCH  33  34
HETATM   34  C   UNK     0      20.730  -8.912  61.614  0.00  0.00     0.114 C 
BRANCH  34  35
HETATM   35  C   UNK     0      19.344  -9.431  61.434  0.00  0.00     0.139 C 
HETATM   36  O   UNK     0      18.655  -9.773  62.439  0.00  0.00    -0.650 OA
BRANCH  35  37
HETATM   37  O   UNK     0      18.749  -9.561  60.184  0.00  0.00    -0.776 OA
HETATM   38  H   UNK     0      18.081  -8.891  59.838  0.00  0.00     0.167 HD
ENDBRANCH  35  37
ENDBRANCH  34  35
ENDBRANCH  33  34
ENDBRANCH   6  33
BRANCH  27  39
HETATM   39  C   UNK     0      26.056 -10.767  53.497  0.00  0.00     0.051 C 
BRANCH  39  40
HETATM   40  C   UNK     0      25.606  -9.670  52.641  0.00  0.00     0.114 C 
BRANCH  40  41
HETATM   41  C   UNK     0      26.288  -9.321  51.414  0.00  0.00     0.139 C 
HETATM   42  O   UNK     0      25.805  -8.574  50.553  0.00  0.00    -0.650 OA
BRANCH  41  43
HETATM   43  O   UNK     0      27.584  -9.856  51.167  0.00  0.00    -0.776 OA
HETATM   44  H   UNK     0      28.025 -10.276  51.977  0.00  0.00     0.167 HD
ENDBRANCH  41  43
ENDBRANCH  40  41
ENDBRANCH  39  40
ENDBRANCH  27  39
BRANCH  11  45
HETATM   45  C   UNK     0      27.541  -3.392  60.479  0.00  0.00     0.051 C 
BRANCH  45  46
HETATM   46  C   UNK     0      26.972  -2.119  60.991  0.00  0.00     0.114 C 
BRANCH  46  47
HETATM   47  C   UNK     0      27.162  -1.091  59.927  0.00  0.00     0.139 C 
HETATM   48  O   UNK     0      28.132  -0.326  60.009  0.00  0.00    -0.650 OA
BRANCH  47  49
HETATM   49  O   UNK     0      26.280  -0.993  58.880  0.00  0.00    -0.776 OA
HETATM   50  H   UNK     0      25.282  -1.212  58.985  0.00  0.00     0.167 HD
ENDBRANCH  47  49
ENDBRANCH  46  47
ENDBRANCH  45  46
ENDBRANCH  11  45
BRANCH  18  51
HETATM   51  C   UNK     0      30.585  -7.154  55.445  0.00  0.00     0.051 C 
BRANCH  51  52
HETATM   52  C   UNK     0      31.179  -7.979  56.576  0.00  0.00     0.114 C 
BRANCH  52  53
HETATM   53  C   UNK     0      32.350  -7.316  57.183  0.00  0.00     0.139 C 
HETATM   54  O   UNK     0      32.221  -6.665  58.232  0.00  0.00    -0.650 OA
BRANCH  53  55
HETATM   55  O   UNK     0      33.579  -7.421  56.579  0.00  0.00    -0.776 OA
HETATM   56  H   UNK     0      33.896  -6.887  55.804  0.00  0.00     0.167 HD
ENDBRANCH  53  55
ENDBRANCH  52  53
ENDBRANCH  51  52
ENDBRANCH  18  51
TORSDOF 16
ENDMDL
MODEL 20
REMARK VINA RESULT:      -7.3     16.822     22.012
REMARK  16 active torsions:
REMARK  status: ('A' for Active; 'I' for Inactive)
REMARK    1  A    between atoms: C_6  and  C_7 
REMARK    2  A    between atoms: C_7  and  C_8 
REMARK    3  A    between atoms: C_8  and  C_9 
REMARK    4  A    between atoms: C_9  and  O_11 
REMARK    5  A    between atoms: C_16  and  C_17 
REMARK    6  A    between atoms: C_17  and  C_18 
REMARK    7  A    between atoms: C_18  and  C_19 
REMARK    8  A    between atoms: C_19  and  O_21 
REMARK    9  A    between atoms: C_28  and  C_29 
REMARK   10  A    between atoms: C_29  and  C_30 
REMARK   11  A    between atoms: C_30  and  C_31 
REMARK   12  A    between atoms: C_31  and  O_33 
REMARK   13  A    between atoms: C_42  and  C_43 
REMARK   14  A    between atoms: C_43  and  C_44 
REMARK   15  A    between atoms: C_44  and  C_45 
REMARK   16  A    between atoms: C_45  and  O_47 
ROOT
HETATM    1  C   UNK     0      14.511 -11.635  53.034  0.00  0.00     0.051 C 
HETATM    2  C   UNK     0      15.118 -11.476  51.655  0.00  0.00    -0.031 A 
HETATM    3  C   UNK     0      14.523 -11.061  50.474  0.00  0.00     0.021 A 
HETATM    4  N   UNK     0      15.441 -11.100  49.479  0.00  0.00    -0.361 N 
HETATM    5  C   UNK     0      16.611 -11.522  50.002  0.00  0.00     0.022 A 
HETATM    6  C   UNK     0      16.443 -11.769  51.361  0.00  0.00    -0.027 A 
HETATM    7  C   UNK     0      17.953 -11.649  49.353  0.00  0.00     0.115 C 
HETATM    8  C   UNK     0      18.375 -10.516  48.434  0.00  0.00     0.021 A 
HETATM    9  N   UNK     0      18.126  -9.203  48.556  0.00  0.00    -0.361 N 
HETATM   10  C   UNK     0      18.612  -8.581  47.462  0.00  0.00     0.022 A 
HETATM   11  C   UNK     0      19.200  -9.517  46.616  0.00  0.00    -0.027 A 
HETATM   12  C   UNK     0      19.054 -10.738  47.223  0.00  0.00    -0.031 A 
HETATM   13  C   UNK     0      19.548 -12.055  46.666  0.00  0.00     0.051 C 
HETATM   14  C   UNK     0      18.497  -7.092  47.145  0.00  0.00     0.115 C 
HETATM   15  C   UNK     0      17.064  -6.599  47.018  0.00  0.00     0.021 A 
HETATM   16  N   UNK     0      16.090  -6.658  47.945  0.00  0.00    -0.361 N 
HETATM   17  C   UNK     0      14.957  -6.185  47.422  0.00  0.00     0.022 A 
HETATM   18  C   UNK     0      15.208  -5.789  46.093  0.00  0.00    -0.027 A 
HETATM   19  C   UNK     0      16.531  -6.052  45.853  0.00  0.00    -0.031 A 
HETATM   20  C   UNK     0      17.230  -5.740  44.542  0.00  0.00     0.051 C 
HETATM   21  C   UNK     0      13.571  -6.101  48.019  0.00  0.00     0.115 C 
HETATM   22  C   UNK     0      13.154  -7.198  48.970  0.00  0.00     0.022 A 
HETATM   23  N   UNK     0      13.392  -8.513  48.875  0.00  0.00    -0.361 N 
HETATM   24  C   UNK     0      12.968  -9.103  50.012  0.00  0.00     0.021 A 
HETATM   25  C   UNK     0      12.435  -8.146  50.854  0.00  0.00    -0.031 A 
HETATM   26  C   UNK     0      11.799  -8.323  52.217  0.00  0.00     0.051 C 
HETATM   27  C   UNK     0      12.542  -6.919  50.209  0.00  0.00    -0.027 A 
HETATM   28  C   UNK     0      13.107 -10.562  50.409  0.00  0.00     0.115 C 
HETATM   29  H   UNK     0      15.246 -10.867  48.407  0.00  0.00     0.165 HD
HETATM   30  H   UNK     0      17.651  -8.706  49.437  0.00  0.00     0.165 HD
HETATM   31  H   UNK     0      16.215  -6.997  49.006  0.00  0.00     0.165 HD
HETATM   32  H   UNK     0      13.822  -9.044  47.987  0.00  0.00     0.165 HD
ENDROOT
BRANCH   6  33
HETATM   33  C   UNK     0      17.434 -12.258  52.387  0.00  0.00     0.051 C 
BRANCH  33  34
HETATM   34  C   UNK     0      17.971 -11.107  53.204  0.00  0.00     0.114 C 
BRANCH  34  35
HETATM   35  C   UNK     0      19.155 -10.561  52.481  0.00  0.00     0.139 C 
HETATM   36  O   UNK     0      20.263 -11.171  52.521  0.00  0.00    -0.650 OA
BRANCH  35  37
HETATM   37  O   UNK     0      19.106  -9.386  51.741  0.00  0.00    -0.776 OA
HETATM   38  H   UNK     0      19.551  -8.538  52.053  0.00  0.00     0.167 HD
ENDBRANCH  35  37
ENDBRANCH  34  35
ENDBRANCH  33  34
ENDBRANCH   6  33
BRANCH  27  39
HETATM   39  C   UNK     0      12.006  -5.653  50.779  0.00  0.00     0.051 C 
BRANCH  39  40
HETATM   40  C   UNK     0      10.738  -5.141  50.262  0.00  0.00     0.114 C 
BRANCH  40  41
HETATM   41  C   UNK     0      10.678  -4.169  49.193  0.00  0.00     0.139 C 
HETATM   42  O   UNK     0      10.177  -4.402  48.085  0.00  0.00    -0.650 OA
BRANCH  41  43
HETATM   43  O   UNK     0      11.218  -2.870  49.410  0.00  0.00    -0.776 OA
HETATM   44  H   UNK     0      11.380  -2.640  50.383  0.00  0.00     0.167 HD
ENDBRANCH  41  43
ENDBRANCH  40  41
ENDBRANCH  39  40
ENDBRANCH  27  39
BRANCH  11  45
HETATM   45  C   UNK     0      19.877  -9.295  45.290  0.00  0.00     0.051 C 
BRANCH  45  46
HETATM   46  C   UNK     0      18.945  -9.237  44.135  0.00  0.00     0.114 C 
BRANCH  46  47
HETATM   47  C   UNK     0      19.212 -10.438  43.293  0.00  0.00     0.139 C 
HETATM   48  O   UNK     0      20.310 -10.532  42.726  0.00  0.00    -0.650 OA
BRANCH  47  49
HETATM   49  O   UNK     0      18.262 -11.417  43.145  0.00  0.00    -0.776 OA
HETATM   50  H   UNK     0      18.188 -11.979  42.289  0.00  0.00     0.167 HD
ENDBRANCH  47  49
ENDBRANCH  46  47
ENDBRANCH  45  46
ENDBRANCH  11  45
BRANCH  18  51
HETATM   51  C   UNK     0      14.244  -5.173  45.112  0.00  0.00     0.051 C 
BRANCH  51  52
HETATM   52  C   UNK     0      14.395  -3.666  45.255  0.00  0.00     0.114 C 
BRANCH  52  53
HETATM   53  C   UNK     0      13.088  -2.989  45.358  0.00  0.00     0.139 C 
HETATM   54  O   UNK     0      12.638  -2.355  44.390  0.00  0.00    -0.650 OA
BRANCH  53  55
HETATM   55  O   UNK     0      12.375  -3.063  46.530  0.00  0.00    -0.776 OA
HETATM   56  H   UNK     0      12.687  -2.763  47.423  0.00  0.00     0.167 HD
ENDBRANCH  53  55
ENDBRANCH  52  53
ENDBRANCH  51  52
ENDBRANCH  18  51
TORSDOF 16
ENDMDL
