MODEL 1
REMARK VINA RESULT:     -10.5      0.000      0.000
REMARK  16 active torsions:
REMARK  status: ('A' for Active; 'I' for Inactive)
REMARK    1  A    between atoms: C_6  and  C_7 
REMARK    2  A    between atoms: C_7  and  C_8 
REMARK    3  A    between atoms: C_8  and  C_9 
REMARK    4  A    between atoms: C_9  and  O_11 
REMARK    5  A    between atoms: C_16  and  C_17 
REMARK    6  A    between atoms: C_17  and  C_18 
REMARK    7  A    between atoms: C_18  and  C_19 
REMARK    8  A    between atoms: C_19  and  O_21 
REMARK    9  A    between atoms: C_28  and  C_29 
REMARK   10  A    between atoms: C_29  and  C_30 
REMARK   11  A    between atoms: C_30  and  C_31 
REMARK   12  A    between atoms: C_31  and  O_33 
REMARK   13  A    between atoms: C_42  and  C_43 
REMARK   14  A    between atoms: C_43  and  C_44 
REMARK   15  A    between atoms: C_44  and  C_45 
REMARK   16  A    between atoms: C_45  and  O_47 
ROOT
HETATM    1  C   UNK     0      -3.503   5.087 -13.120  0.00  0.00     0.051 C 
HETATM    2  C   UNK     0      -2.903   3.740 -12.771  0.00  0.00    -0.031 A 
HETATM    3  C   UNK     0      -1.622   3.432 -12.343  0.00  0.00     0.021 A 
HETATM    4  N   UNK     0      -1.521   2.091 -12.180  0.00  0.00    -0.361 N 
HETATM    5  C   UNK     0      -2.713   1.539 -12.487  0.00  0.00     0.022 A 
HETATM    6  C   UNK     0      -3.600   2.542 -12.863  0.00  0.00    -0.027 A 
HETATM    7  C   UNK     0      -3.156   0.113 -12.383  0.00  0.00     0.115 C 
HETATM    8  C   UNK     0      -2.738  -0.642 -11.134  0.00  0.00     0.021 A 
HETATM    9  N   UNK     0      -2.618  -0.181  -9.879  0.00  0.00    -0.361 N 
HETATM   10  C   UNK     0      -2.130  -1.178  -9.111  0.00  0.00     0.022 A 
HETATM   11  C   UNK     0      -1.940  -2.316  -9.891  0.00  0.00    -0.027 A 
HETATM   12  C   UNK     0      -2.321  -1.985 -11.166  0.00  0.00    -0.031 A 
HETATM   13  C   UNK     0      -2.290  -2.916 -12.357  0.00  0.00     0.051 C 
HETATM   14  C   UNK     0      -1.776  -1.084  -7.630  0.00  0.00     0.115 C 
HETATM   15  C   UNK     0      -0.692  -0.064  -7.320  0.00  0.00     0.021 A 
HETATM   16  N   UNK     0      -0.708   1.257  -7.582  0.00  0.00    -0.361 N 
HETATM   17  C   UNK     0       0.461   1.790  -7.219  0.00  0.00     0.022 A 
HETATM   18  C   UNK     0       1.274   0.770  -6.687  0.00  0.00    -0.027 A 
HETATM   19  C   UNK     0       0.540  -0.386  -6.754  0.00  0.00    -0.031 A 
HETATM   20  C   UNK     0       1.032  -1.729  -6.248  0.00  0.00     0.051 C 
HETATM   21  C   UNK     0       0.971   3.205  -7.367  0.00  0.00     0.115 C 
HETATM   22  C   UNK     0       0.526   3.984  -8.583  0.00  0.00     0.022 A 
HETATM   23  N   UNK     0       0.394   3.550  -9.843  0.00  0.00    -0.361 N 
HETATM   24  C   UNK     0      -0.166   4.535 -10.574  0.00  0.00     0.021 A 
HETATM   25  C   UNK     0      -0.390   5.633  -9.766  0.00  0.00    -0.031 A 
HETATM   26  C   UNK     0      -0.960   6.987 -10.136  0.00  0.00     0.051 C 
HETATM   27  C   UNK     0       0.045   5.305  -8.488  0.00  0.00    -0.027 A 
HETATM   28  C   UNK     0      -0.595   4.483 -12.030  0.00  0.00     0.115 C 
HETATM   29  H   UNK     0      -0.597   1.541 -11.888  0.00  0.00     0.165 HD
HETATM   30  H   UNK     0      -2.924   0.833  -9.522  0.00  0.00     0.165 HD
HETATM   31  H   UNK     0      -1.580   1.834  -7.987  0.00  0.00     0.165 HD
HETATM   32  H   UNK     0       0.735   2.558 -10.239  0.00  0.00     0.165 HD
ENDROOT
BRANCH   6  33
HETATM   33  C   UNK     0      -5.040   2.449 -13.301  0.00  0.00     0.051 C 
BRANCH  33  34
HETATM   34  C   UNK     0      -5.148   1.769 -14.645  0.00  0.00     0.114 C 
BRANCH  34  35
HETATM   35  C   UNK     0      -6.267   2.420 -15.385  0.00  0.00     0.139 C 
HETATM   36  O   UNK     0      -7.113   3.129 -14.767  0.00  0.00    -0.650 OA
BRANCH  35  37
HETATM   37  O   UNK     0      -6.434   2.287 -16.758  0.00  0.00    -0.776 OA
HETATM   38  H   UNK     0      -7.242   2.653 -17.237  0.00  0.00     0.167 HD
ENDBRANCH  35  37
ENDBRANCH  34  35
ENDBRANCH  33  34
ENDBRANCH   6  33
BRANCH  27  39
HETATM   39  C   UNK     0       0.030   6.269  -7.354  0.00  0.00     0.051 C 
BRANCH  39  40
HETATM   40  C   UNK     0      -1.092   6.221  -6.417  0.00  0.00     0.114 C 
BRANCH  40  41
HETATM   41  C   UNK     0      -2.153   7.203  -6.436  0.00  0.00     0.139 C 
HETATM   42  O   UNK     0      -2.954   7.327  -7.372  0.00  0.00    -0.650 OA
BRANCH  41  43
HETATM   43  O   UNK     0      -2.300   8.082  -5.325  0.00  0.00    -0.776 OA
HETATM   44  H   UNK     0      -3.260   8.310  -5.096  0.00  0.00     0.167 HD
ENDBRANCH  41  43
ENDBRANCH  40  41
ENDBRANCH  39  40
ENDBRANCH  27  39
BRANCH  11  45
HETATM   45  C   UNK     0      -1.425  -3.667  -9.474  0.00  0.00     0.051 C 
BRANCH  45  46
HETATM   46  C   UNK     0      -2.473  -4.717  -9.395  0.00  0.00     0.114 C 
BRANCH  46  47
HETATM   47  C   UNK     0      -1.929  -5.821  -8.554  0.00  0.00     0.139 C 
HETATM   48  O   UNK     0      -2.187  -6.991  -8.873  0.00  0.00    -0.650 OA
BRANCH  47  49
HETATM   49  O   UNK     0      -1.161  -5.551  -7.450  0.00  0.00    -0.776 OA
HETATM   50  H   UNK     0      -1.090  -4.606  -7.054  0.00  0.00     0.167 HD
ENDBRANCH  47  49
ENDBRANCH  46  47
ENDBRANCH  45  46
ENDBRANCH  11  45
BRANCH  18  51
HETATM   51  C   UNK     0       2.666   0.893  -6.124  0.00  0.00     0.051 C 
BRANCH  51  52
HETATM   52  C   UNK     0       3.613   0.831  -7.314  0.00  0.00     0.114 C 
BRANCH  52  53
HETATM   53  C   UNK     0       4.813   1.664  -7.105  0.00  0.00     0.139 C 
HETATM   54  O   UNK     0       4.729   2.727  -6.470  0.00  0.00    -0.650 OA
BRANCH  53  55
HETATM   55  O   UNK     0       6.020   1.257  -7.619  0.00  0.00    -0.776 OA
HETATM   56  H   UNK     0       6.154   0.565  -8.318  0.00  0.00     0.167 HD
ENDBRANCH  53  55
ENDBRANCH  52  53
ENDBRANCH  51  52
ENDBRANCH  18  51
TORSDOF 16
ENDMDL
MODEL 2
REMARK VINA RESULT:     -10.1      1.665      7.657
REMARK  16 active torsions:
REMARK  status: ('A' for Active; 'I' for Inactive)
REMARK    1  A    between atoms: C_6  and  C_7 
REMARK    2  A    between atoms: C_7  and  C_8 
REMARK    3  A    between atoms: C_8  and  C_9 
REMARK    4  A    between atoms: C_9  and  O_11 
REMARK    5  A    between atoms: C_16  and  C_17 
REMARK    6  A    between atoms: C_17  and  C_18 
REMARK    7  A    between atoms: C_18  and  C_19 
REMARK    8  A    between atoms: C_19  and  O_21 
REMARK    9  A    between atoms: C_28  and  C_29 
REMARK   10  A    between atoms: C_29  and  C_30 
REMARK   11  A    between atoms: C_30  and  C_31 
REMARK   12  A    between atoms: C_31  and  O_33 
REMARK   13  A    between atoms: C_42  and  C_43 
REMARK   14  A    between atoms: C_43  and  C_44 
REMARK   15  A    between atoms: C_44  and  C_45 
REMARK   16  A    between atoms: C_45  and  O_47 
ROOT
HETATM    1  C   UNK     0      -1.529  -3.518  -9.239  0.00  0.00     0.051 C 
HETATM    2  C   UNK     0      -2.079  -2.147  -9.575  0.00  0.00    -0.031 A 
HETATM    3  C   UNK     0      -2.255  -1.045  -8.754  0.00  0.00     0.021 A 
HETATM    4  N   UNK     0      -2.809  -0.041  -9.475  0.00  0.00    -0.361 N 
HETATM    5  C   UNK     0      -2.982  -0.478 -10.740  0.00  0.00     0.022 A 
HETATM    6  C   UNK     0      -2.539  -1.793 -10.836  0.00  0.00    -0.027 A 
HETATM    7  C   UNK     0      -3.467   0.265 -11.946  0.00  0.00     0.115 C 
HETATM    8  C   UNK     0      -2.935   1.674 -12.137  0.00  0.00     0.021 A 
HETATM    9  N   UNK     0      -1.715   2.154 -11.851  0.00  0.00    -0.361 N 
HETATM   10  C   UNK     0      -1.717   3.481 -12.099  0.00  0.00     0.022 A 
HETATM   11  C   UNK     0      -2.971   3.865 -12.566  0.00  0.00    -0.027 A 
HETATM   12  C   UNK     0      -3.743   2.732 -12.593  0.00  0.00    -0.031 A 
HETATM   13  C   UNK     0      -5.186   2.668 -13.039  0.00  0.00     0.051 C 
HETATM   14  C   UNK     0      -0.559   4.445 -11.855  0.00  0.00     0.115 C 
HETATM   15  C   UNK     0      -0.122   4.527 -10.402  0.00  0.00     0.021 A 
HETATM   16  N   UNK     0       0.316   3.524  -9.618  0.00  0.00    -0.361 N 
HETATM   17  C   UNK     0       0.533   3.993  -8.387  0.00  0.00     0.022 A 
HETATM   18  C   UNK     0       0.231   5.369  -8.370  0.00  0.00    -0.027 A 
HETATM   19  C   UNK     0      -0.177   5.692  -9.639  0.00  0.00    -0.031 A 
HETATM   20  C   UNK     0      -0.565   7.094 -10.069  0.00  0.00     0.051 C 
HETATM   21  C   UNK     0       0.957   3.266  -7.131  0.00  0.00     0.115 C 
HETATM   22  C   UNK     0       0.471   1.847  -6.948  0.00  0.00     0.022 A 
HETATM   23  N   UNK     0      -0.737   1.341  -7.228  0.00  0.00    -0.361 N 
HETATM   24  C   UNK     0      -0.689   0.006  -7.048  0.00  0.00     0.021 A 
HETATM   25  C   UNK     0       0.579  -0.355  -6.633  0.00  0.00    -0.031 A 
HETATM   26  C   UNK     0       1.107  -1.727  -6.267  0.00  0.00     0.051 C 
HETATM   27  C   UNK     0       1.339   0.806  -6.561  0.00  0.00    -0.027 A 
HETATM   28  C   UNK     0      -1.783  -1.010  -7.328  0.00  0.00     0.115 C 
HETATM   29  H   UNK     0      -3.111   0.955  -9.076  0.00  0.00     0.165 HD
HETATM   30  H   UNK     0      -0.835   1.549 -11.522  0.00  0.00     0.165 HD
HETATM   31  H   UNK     0       0.523   2.474  -9.951  0.00  0.00     0.165 HD
HETATM   32  H   UNK     0      -1.648   1.928  -7.514  0.00  0.00     0.165 HD
ENDROOT
BRANCH   6  33
HETATM   33  C   UNK     0      -2.521  -2.726 -12.021  0.00  0.00     0.051 C 
BRANCH  33  34
HETATM   34  C   UNK     0      -3.927  -3.063 -12.457  0.00  0.00     0.114 C 
BRANCH  34  35
HETATM   35  C   UNK     0      -4.666  -3.542 -11.253  0.00  0.00     0.139 C 
HETATM   36  O   UNK     0      -4.400  -4.672 -10.750  0.00  0.00    -0.650 OA
BRANCH  35  37
HETATM   37  O   UNK     0      -5.657  -2.790 -10.634  0.00  0.00    -0.776 OA
HETATM   38  H   UNK     0      -6.343  -3.207 -10.027  0.00  0.00     0.167 HD
ENDBRANCH  35  37
ENDBRANCH  34  35
ENDBRANCH  33  34
ENDBRANCH   6  33
BRANCH  27  39
HETATM   39  C   UNK     0       2.747   0.825  -6.079  0.00  0.00     0.051 C 
BRANCH  39  40
HETATM   40  C   UNK     0       3.819   0.662  -7.060  0.00  0.00     0.114 C 
BRANCH  40  41
HETATM   41  C   UNK     0       4.971   1.535  -7.095  0.00  0.00     0.139 C 
HETATM   42  O   UNK     0       5.741   1.688  -6.138  0.00  0.00    -0.650 OA
BRANCH  41  43
HETATM   43  O   UNK     0       5.248   2.265  -8.286  0.00  0.00    -0.776 OA
HETATM   44  H   UNK     0       4.806   3.175  -8.332  0.00  0.00     0.167 HD
ENDBRANCH  41  43
ENDBRANCH  40  41
ENDBRANCH  39  40
ENDBRANCH  27  39
BRANCH  11  45
HETATM   45  C   UNK     0      -3.443   5.233 -12.978  0.00  0.00     0.051 C 
BRANCH  45  46
HETATM   46  C   UNK     0      -3.807   6.117 -11.840  0.00  0.00     0.114 C 
BRANCH  46  47
HETATM   47  C   UNK     0      -4.264   7.414 -12.417  0.00  0.00     0.139 C 
HETATM   48  O   UNK     0      -4.272   8.416 -11.688  0.00  0.00    -0.650 OA
BRANCH  47  49
HETATM   49  O   UNK     0      -4.668   7.497 -13.725  0.00  0.00    -0.776 OA
HETATM   50  H   UNK     0      -4.086   7.936 -14.449  0.00  0.00     0.167 HD
ENDBRANCH  47  49
ENDBRANCH  46  47
ENDBRANCH  45  46
ENDBRANCH  11  45
BRANCH  18  51
HETATM   51  C   UNK     0       0.345   6.329  -7.214  0.00  0.00     0.051 C 
BRANCH  51  52
HETATM   52  C   UNK     0      -1.037   6.399  -6.581  0.00  0.00     0.114 C 
BRANCH  52  53
HETATM   53  C   UNK     0      -1.461   7.791  -6.340  0.00  0.00     0.139 C 
HETATM   54  O   UNK     0      -0.859   8.728  -6.889  0.00  0.00    -0.650 OA
BRANCH  53  55
HETATM   55  O   UNK     0      -2.522   8.044  -5.504  0.00  0.00    -0.776 OA
HETATM   56  H   UNK     0      -2.591   8.795  -4.859  0.00  0.00     0.167 HD
ENDBRANCH  53  55
ENDBRANCH  52  53
ENDBRANCH  51  52
ENDBRANCH  18  51
TORSDOF 16
ENDMDL
MODEL 3
REMARK VINA RESULT:      -9.7      2.814      7.871
REMARK  16 active torsions:
REMARK  status: ('A' for Active; 'I' for Inactive)
REMARK    1  A    between atoms: C_6  and  C_7 
REMARK    2  A    between atoms: C_7  and  C_8 
REMARK    3  A    between atoms: C_8  and  C_9 
REMARK    4  A    between atoms: C_9  and  O_11 
REMARK    5  A    between atoms: C_16  and  C_17 
REMARK    6  A    between atoms: C_17  and  C_18 
REMARK    7  A    between atoms: C_18  and  C_19 
REMARK    8  A    between atoms: C_19  and  O_21 
REMARK    9  A    between atoms: C_28  and  C_29 
REMARK   10  A    between atoms: C_29  and  C_30 
REMARK   11  A    between atoms: C_30  and  C_31 
REMARK   12  A    between atoms: C_31  and  O_33 
REMARK   13  A    between atoms: C_42  and  C_43 
REMARK   14  A    between atoms: C_43  and  C_44 
REMARK   15  A    between atoms: C_44  and  C_45 
REMARK   16  A    between atoms: C_45  and  O_47 
ROOT
HETATM    1  C   UNK     0      -1.393  -1.906 -11.137  0.00  0.00     0.051 C 
HETATM    2  C   UNK     0      -2.122  -0.582 -11.035  0.00  0.00    -0.031 A 
HETATM    3  C   UNK     0      -2.283   0.252  -9.939  0.00  0.00     0.021 A 
HETATM    4  N   UNK     0      -3.035   1.317 -10.302  0.00  0.00    -0.361 N 
HETATM    5  C   UNK     0      -3.350   1.185 -11.607  0.00  0.00     0.022 A 
HETATM    6  C   UNK     0      -2.797   0.007 -12.096  0.00  0.00    -0.027 A 
HETATM    7  C   UNK     0      -4.081   2.129 -12.510  0.00  0.00     0.115 C 
HETATM    8  C   UNK     0      -3.728   3.601 -12.388  0.00  0.00     0.021 A 
HETATM    9  N   UNK     0      -2.532   4.155 -12.133  0.00  0.00    -0.361 N 
HETATM   10  C   UNK     0      -2.704   5.489 -12.022  0.00  0.00     0.022 A 
HETATM   11  C   UNK     0      -4.045   5.804 -12.221  0.00  0.00    -0.027 A 
HETATM   12  C   UNK     0      -4.696   4.619 -12.452  0.00  0.00    -0.031 A 
HETATM   13  C   UNK     0      -6.176   4.473 -12.725  0.00  0.00     0.051 C 
HETATM   14  C   UNK     0      -1.625   6.511 -11.674  0.00  0.00     0.115 C 
HETATM   15  C   UNK     0      -0.987   6.292 -10.312  0.00  0.00     0.021 A 
HETATM   16  N   UNK     0      -0.339   5.196  -9.875  0.00  0.00    -0.361 N 
HETATM   17  C   UNK     0       0.011   5.373  -8.599  0.00  0.00     0.022 A 
HETATM   18  C   UNK     0      -0.422   6.649  -8.187  0.00  0.00    -0.027 A 
HETATM   19  C   UNK     0      -1.044   7.215  -9.270  0.00  0.00    -0.031 A 
HETATM   20  C   UNK     0      -1.630   8.615  -9.269  0.00  0.00     0.051 C 
HETATM   21  C   UNK     0       0.688   4.424  -7.637  0.00  0.00     0.115 C 
HETATM   22  C   UNK     0       0.379   2.952  -7.775  0.00  0.00     0.022 A 
HETATM   23  N   UNK     0      -0.801   2.372  -8.033  0.00  0.00    -0.361 N 
HETATM   24  C   UNK     0      -0.593   1.052  -8.216  0.00  0.00     0.021 A 
HETATM   25  C   UNK     0       0.752   0.774  -8.063  0.00  0.00    -0.031 A 
HETATM   26  C   UNK     0       1.463  -0.561  -8.133  0.00  0.00     0.051 C 
HETATM   27  C   UNK     0       1.395   1.974  -7.780  0.00  0.00    -0.027 A 
HETATM   28  C   UNK     0      -1.609  -0.002  -8.620  0.00  0.00     0.115 C 
HETATM   29  H   UNK     0      -3.372   2.135  -9.623  0.00  0.00     0.165 HD
HETATM   30  H   UNK     0      -1.557   3.612 -12.080  0.00  0.00     0.165 HD
HETATM   31  H   UNK     0      -0.080   4.298 -10.494  0.00  0.00     0.165 HD
HETATM   32  H   UNK     0      -1.798   2.882  -8.045  0.00  0.00     0.165 HD
ENDROOT
BRANCH   6  33
HETATM   33  C   UNK     0      -2.863  -0.596 -13.477  0.00  0.00     0.051 C 
BRANCH  33  34
HETATM   34  C   UNK     0      -2.246   0.332 -14.496  0.00  0.00     0.114 C 
BRANCH  34  35
HETATM   35  C   UNK     0      -0.891   0.706 -13.997  0.00  0.00     0.139 C 
HETATM   36  O   UNK     0       0.018  -0.169 -13.907  0.00  0.00    -0.650 OA
BRANCH  35  37
HETATM   37  O   UNK     0      -0.564   2.002 -13.618  0.00  0.00    -0.776 OA
HETATM   38  H   UNK     0       0.148   2.534 -14.092  0.00  0.00     0.167 HD
ENDBRANCH  35  37
ENDBRANCH  34  35
ENDBRANCH  33  34
ENDBRANCH   6  33
BRANCH  27  39
HETATM   39  C   UNK     0       2.849   2.063  -7.480  0.00  0.00     0.051 C 
BRANCH  39  40
HETATM   40  C   UNK     0       3.792   2.025  -8.597  0.00  0.00     0.114 C 
BRANCH  40  41
HETATM   41  C   UNK     0       3.604   2.816  -9.792  0.00  0.00     0.139 C 
HETATM   42  O   UNK     0       3.118   2.368 -10.839  0.00  0.00    -0.650 OA
BRANCH  41  43
HETATM   43  O   UNK     0       3.992   4.186  -9.782  0.00  0.00    -0.776 OA
HETATM   44  H   UNK     0       3.239   4.833  -9.578  0.00  0.00     0.167 HD
ENDBRANCH  41  43
ENDBRANCH  40  41
ENDBRANCH  39  40
ENDBRANCH  27  39
BRANCH  11  45
HETATM   45  C   UNK     0      -4.708   7.155 -12.201  0.00  0.00     0.051 C 
BRANCH  45  46
HETATM   46  C   UNK     0      -4.947   7.733 -13.548  0.00  0.00     0.114 C 
BRANCH  46  47
HETATM   47  C   UNK     0      -6.142   8.618 -13.444  0.00  0.00     0.139 C 
HETATM   48  O   UNK     0      -7.171   8.299 -14.057  0.00  0.00    -0.650 OA
BRANCH  47  49
HETATM   49  O   UNK     0      -6.106   9.762 -12.688  0.00  0.00    -0.776 OA
HETATM   50  H   UNK     0      -6.801  10.510 -12.797  0.00  0.00     0.167 HD
ENDBRANCH  47  49
ENDBRANCH  46  47
ENDBRANCH  45  46
ENDBRANCH  11  45
BRANCH  18  51
HETATM   51  C   UNK     0      -0.233   7.302  -6.843  0.00  0.00     0.051 C 
BRANCH  51  52
HETATM   52  C   UNK     0      -1.288   6.700  -5.926  0.00  0.00     0.114 C 
BRANCH  52  53
HETATM   53  C   UNK     0      -2.560   7.445  -5.989  0.00  0.00     0.139 C 
HETATM   54  O   UNK     0      -3.468   7.062  -6.745  0.00  0.00    -0.650 OA
BRANCH  53  55
HETATM   55  O   UNK     0      -2.733   8.563  -5.210  0.00  0.00    -0.776 OA
HETATM   56  H   UNK     0      -2.215   8.793  -4.394  0.00  0.00     0.167 HD
ENDBRANCH  53  55
ENDBRANCH  52  53
ENDBRANCH  51  52
ENDBRANCH  18  51
TORSDOF 16
ENDMDL
MODEL 4
REMARK VINA RESULT:      -9.7      2.075      2.901
REMARK  16 active torsions:
REMARK  status: ('A' for Active; 'I' for Inactive)
REMARK    1  A    between atoms: C_6  and  C_7 
REMARK    2  A    between atoms: C_7  and  C_8 
REMARK    3  A    between atoms: C_8  and  C_9 
REMARK    4  A    between atoms: C_9  and  O_11 
REMARK    5  A    between atoms: C_16  and  C_17 
REMARK    6  A    between atoms: C_17  and  C_18 
REMARK    7  A    between atoms: C_18  and  C_19 
REMARK    8  A    between atoms: C_19  and  O_21 
REMARK    9  A    between atoms: C_28  and  C_29 
REMARK   10  A    between atoms: C_29  and  C_30 
REMARK   11  A    between atoms: C_30  and  C_31 
REMARK   12  A    between atoms: C_31  and  O_33 
REMARK   13  A    between atoms: C_42  and  C_43 
REMARK   14  A    between atoms: C_43  and  C_44 
REMARK   15  A    between atoms: C_44  and  C_45 
REMARK   16  A    between atoms: C_45  and  O_47 
ROOT
HETATM    1  C   UNK     0      -6.172   6.776 -12.869  0.00  0.00     0.051 C 
HETATM    2  C   UNK     0      -5.187   5.625 -12.901  0.00  0.00    -0.031 A 
HETATM    3  C   UNK     0      -3.821   5.629 -12.668  0.00  0.00     0.021 A 
HETATM    4  N   UNK     0      -3.340   4.375 -12.837  0.00  0.00    -0.361 N 
HETATM    5  C   UNK     0      -4.372   3.569 -13.163  0.00  0.00     0.022 A 
HETATM    6  C   UNK     0      -5.542   4.319 -13.215  0.00  0.00    -0.027 A 
HETATM    7  C   UNK     0      -4.395   2.086 -13.363  0.00  0.00     0.115 C 
HETATM    8  C   UNK     0      -3.608   1.251 -12.368  0.00  0.00     0.021 A 
HETATM    9  N   UNK     0      -3.431   1.463 -11.055  0.00  0.00    -0.361 N 
HETATM   10  C   UNK     0      -2.584   0.521 -10.589  0.00  0.00     0.022 A 
HETATM   11  C   UNK     0      -2.213  -0.327 -11.628  0.00  0.00    -0.027 A 
HETATM   12  C   UNK     0      -2.855   0.128 -12.752  0.00  0.00    -0.031 A 
HETATM   13  C   UNK     0      -2.752  -0.492 -14.128  0.00  0.00     0.051 C 
HETATM   14  C   UNK     0      -2.051   0.413  -9.163  0.00  0.00     0.115 C 
HETATM   15  C   UNK     0      -1.249   1.623  -8.713  0.00  0.00     0.021 A 
HETATM   16  N   UNK     0      -1.658   2.904  -8.652  0.00  0.00    -0.361 N 
HETATM   17  C   UNK     0      -0.635   3.674  -8.274  0.00  0.00     0.022 A 
HETATM   18  C   UNK     0       0.492   2.854  -8.069  0.00  0.00    -0.027 A 
HETATM   19  C   UNK     0       0.095   1.572  -8.346  0.00  0.00    -0.031 A 
HETATM   20  C   UNK     0       1.000   0.361  -8.215  0.00  0.00     0.051 C 
HETATM   21  C   UNK     0      -0.552   5.176  -8.125  0.00  0.00     0.115 C 
HETATM   22  C   UNK     0      -1.365   6.018  -9.080  0.00  0.00     0.022 A 
HETATM   23  N   UNK     0      -1.562   5.829 -10.391  0.00  0.00    -0.361 N 
HETATM   24  C   UNK     0      -2.469   6.731 -10.818  0.00  0.00     0.021 A 
HETATM   25  C   UNK     0      -2.857   7.527  -9.758  0.00  0.00    -0.031 A 
HETATM   26  C   UNK     0      -3.818   8.698  -9.747  0.00  0.00     0.051 C 
HETATM   27  C   UNK     0      -2.164   7.090  -8.634  0.00  0.00    -0.027 A 
HETATM   28  C   UNK     0      -3.080   6.851 -12.203  0.00  0.00     0.115 C 
HETATM   29  H   UNK     0      -2.269   4.074 -12.762  0.00  0.00     0.165 HD
HETATM   30  H   UNK     0      -3.941   2.247 -10.443  0.00  0.00     0.165 HD
HETATM   31  H   UNK     0      -2.703   3.268  -8.834  0.00  0.00     0.165 HD
HETATM   32  H   UNK     0      -1.030   5.083 -11.038  0.00  0.00     0.165 HD
ENDROOT
BRANCH   6  33
HETATM   33  C   UNK     0      -6.952   3.896 -13.539  0.00  0.00     0.051 C 
BRANCH  33  34
HETATM   34  C   UNK     0      -6.984   3.051 -14.790  0.00  0.00     0.114 C 
BRANCH  34  35
HETATM   35  C   UNK     0      -7.911   3.712 -15.752  0.00  0.00     0.139 C 
HETATM   36  O   UNK     0      -8.135   3.190 -16.883  0.00  0.00    -0.650 OA
BRANCH  35  37
HETATM   37  O   UNK     0      -8.565   4.904 -15.464  0.00  0.00    -0.776 OA
HETATM   38  H   UNK     0      -8.197   5.798 -15.749  0.00  0.00     0.167 HD
ENDBRANCH  35  37
ENDBRANCH  34  35
ENDBRANCH  33  34
ENDBRANCH   6  33
BRANCH  27  39
HETATM   39  C   UNK     0      -2.269   7.756  -7.308  0.00  0.00     0.051 C 
BRANCH  39  40
HETATM   40  C   UNK     0      -1.291   8.791  -6.972  0.00  0.00     0.114 C 
BRANCH  40  41
HETATM   41  C   UNK     0       0.002   8.476  -6.409  0.00  0.00     0.139 C 
HETATM   42  O   UNK     0       1.019   9.153  -6.610  0.00  0.00    -0.650 OA
BRANCH  41  43
HETATM   43  O   UNK     0       0.132   7.328  -5.576  0.00  0.00    -0.776 OA
HETATM   44  H   UNK     0       0.425   6.489  -6.062  0.00  0.00     0.167 HD
ENDBRANCH  41  43
ENDBRANCH  40  41
ENDBRANCH  39  40
ENDBRANCH  27  39
BRANCH  11  45
HETATM   45  C   UNK     0      -1.298  -1.521 -11.589  0.00  0.00     0.051 C 
BRANCH  45  46
HETATM   46  C   UNK     0      -1.986  -2.820 -11.804  0.00  0.00     0.114 C 
BRANCH  46  47
HETATM   47  C   UNK     0      -2.247  -3.410 -10.459  0.00  0.00     0.139 C 
HETATM   48  O   UNK     0      -1.545  -3.043  -9.506  0.00  0.00    -0.650 OA
BRANCH  47  49
HETATM   49  O   UNK     0      -3.240  -4.339 -10.280  0.00  0.00    -0.776 OA
HETATM   50  H   UNK     0      -3.088  -5.340 -10.454  0.00  0.00     0.167 HD
ENDBRANCH  47  49
ENDBRANCH  46  47
ENDBRANCH  45  46
ENDBRANCH  11  45
BRANCH  18  51
HETATM   51  C   UNK     0       1.868   3.267  -7.613  0.00  0.00     0.051 C 
BRANCH  51  52
HETATM   52  C   UNK     0       2.569   3.836  -8.837  0.00  0.00     0.114 C 
BRANCH  52  53
HETATM   53  C   UNK     0       3.636   2.941  -9.325  0.00  0.00     0.139 C 
HETATM   54  O   UNK     0       4.590   2.650  -8.585  0.00  0.00    -0.650 OA
BRANCH  53  55
HETATM   55  O   UNK     0       3.569   2.435 -10.600  0.00  0.00    -0.776 OA
HETATM   56  H   UNK     0       4.185   2.653 -11.348  0.00  0.00     0.167 HD
ENDBRANCH  53  55
ENDBRANCH  52  53
ENDBRANCH  51  52
ENDBRANCH  18  51
TORSDOF 16
ENDMDL
MODEL 5
REMARK VINA RESULT:      -9.5      2.277     10.305
REMARK  16 active torsions:
REMARK  status: ('A' for Active; 'I' for Inactive)
REMARK    1  A    between atoms: C_6  and  C_7 
REMARK    2  A    between atoms: C_7  and  C_8 
REMARK    3  A    between atoms: C_8  and  C_9 
REMARK    4  A    between atoms: C_9  and  O_11 
REMARK    5  A    between atoms: C_16  and  C_17 
REMARK    6  A    between atoms: C_17  and  C_18 
REMARK    7  A    between atoms: C_18  and  C_19 
REMARK    8  A    between atoms: C_19  and  O_21 
REMARK    9  A    between atoms: C_28  and  C_29 
REMARK   10  A    between atoms: C_29  and  C_30 
REMARK   11  A    between atoms: C_30  and  C_31 
REMARK   12  A    between atoms: C_31  and  O_33 
REMARK   13  A    between atoms: C_42  and  C_43 
REMARK   14  A    between atoms: C_43  and  C_44 
REMARK   15  A    between atoms: C_44  and  C_45 
REMARK   16  A    between atoms: C_45  and  O_47 
ROOT
HETATM    1  C   UNK     0       0.106  -2.902  -7.792  0.00  0.00     0.051 C 
HETATM    2  C   UNK     0       0.093  -1.557  -8.490  0.00  0.00    -0.031 A 
HETATM    3  C   UNK     0      -0.101  -1.263  -9.830  0.00  0.00     0.021 A 
HETATM    4  N   UNK     0       0.002   0.076 -10.007  0.00  0.00    -0.361 N 
HETATM    5  C   UNK     0       0.249   0.642  -8.808  0.00  0.00     0.022 A 
HETATM    6  C   UNK     0       0.315  -0.352  -7.836  0.00  0.00    -0.027 A 
HETATM    7  C   UNK     0       0.355   2.089  -8.442  0.00  0.00     0.115 C 
HETATM    8  C   UNK     0      -0.668   3.025  -9.061  0.00  0.00     0.021 A 
HETATM    9  N   UNK     0      -1.960   2.788  -9.336  0.00  0.00    -0.361 N 
HETATM   10  C   UNK     0      -2.460   3.872  -9.967  0.00  0.00     0.022 A 
HETATM   11  C   UNK     0      -1.466   4.837 -10.093  0.00  0.00    -0.027 A 
HETATM   12  C   UNK     0      -0.334   4.310  -9.525  0.00  0.00    -0.031 A 
HETATM   13  C   UNK     0       1.003   5.011  -9.427  0.00  0.00     0.051 C 
HETATM   14  C   UNK     0      -3.875   4.020 -10.520  0.00  0.00     0.115 C 
HETATM   15  C   UNK     0      -4.225   3.002 -11.593  0.00  0.00     0.021 A 
HETATM   16  N   UNK     0      -4.217   1.660 -11.487  0.00  0.00    -0.361 N 
HETATM   17  C   UNK     0      -4.518   1.124 -12.672  0.00  0.00     0.022 A 
HETATM   18  C   UNK     0      -4.742   2.167 -13.593  0.00  0.00    -0.027 A 
HETATM   19  C   UNK     0      -4.557   3.338 -12.904  0.00  0.00    -0.031 A 
HETATM   20  C   UNK     0      -4.738   4.715 -13.517  0.00  0.00     0.051 C 
HETATM   21  C   UNK     0      -4.570  -0.326 -13.098  0.00  0.00     0.115 C 
HETATM   22  C   UNK     0      -3.587  -1.277 -12.457  0.00  0.00     0.022 A 
HETATM   23  N   UNK     0      -2.297  -1.066 -12.168  0.00  0.00    -0.361 N 
HETATM   24  C   UNK     0      -1.840  -2.127 -11.472  0.00  0.00     0.021 A 
HETATM   25  C   UNK     0      -2.859  -3.047 -11.317  0.00  0.00    -0.031 A 
HETATM   26  C   UNK     0      -2.824  -4.405 -10.647  0.00  0.00     0.051 C 
HETATM   27  C   UNK     0      -3.987  -2.526 -11.940  0.00  0.00    -0.027 A 
HETATM   28  C   UNK     0      -0.468  -2.307 -10.846  0.00  0.00     0.115 C 
HETATM   29  H   UNK     0      -0.061   0.607 -10.985  0.00  0.00     0.165 HD
HETATM   30  H   UNK     0      -2.536   1.877  -9.042  0.00  0.00     0.165 HD
HETATM   31  H   UNK     0      -4.043   1.078 -10.544  0.00  0.00     0.165 HD
HETATM   32  H   UNK     0      -1.683  -0.185 -12.491  0.00  0.00     0.165 HD
ENDROOT
BRANCH   6  33
HETATM   33  C   UNK     0       0.571  -0.244  -6.355  0.00  0.00     0.051 C 
BRANCH  33  34
HETATM   34  C   UNK     0       2.034  -0.460  -6.048  0.00  0.00     0.114 C 
BRANCH  34  35
HETATM   35  C   UNK     0       2.675   0.883  -5.958  0.00  0.00     0.139 C 
HETATM   36  O   UNK     0       3.933   0.995  -6.039  0.00  0.00    -0.650 OA
BRANCH  35  37
HETATM   37  O   UNK     0       1.944   2.052  -5.789  0.00  0.00    -0.776 OA
HETATM   38  H   UNK     0       0.987   2.044  -5.476  0.00  0.00     0.167 HD
ENDBRANCH  35  37
ENDBRANCH  34  35
ENDBRANCH  33  34
ENDBRANCH   6  33
BRANCH  27  39
HETATM   39  C   UNK     0      -5.272  -3.269 -12.043  0.00  0.00     0.051 C 
BRANCH  39  40
HETATM   40  C   UNK     0      -6.270  -3.081 -10.991  0.00  0.00     0.114 C 
BRANCH  40  41
HETATM   41  C   UNK     0      -6.677  -4.155 -10.113  0.00  0.00     0.139 C 
HETATM   42  O   UNK     0      -6.248  -5.313 -10.207  0.00  0.00    -0.650 OA
BRANCH  41  43
HETATM   43  O   UNK     0      -7.620  -3.885  -9.082  0.00  0.00    -0.776 OA
HETATM   44  H   UNK     0      -7.921  -2.919  -9.031  0.00  0.00     0.167 HD
ENDBRANCH  41  43
ENDBRANCH  40  41
ENDBRANCH  39  40
ENDBRANCH  27  39
BRANCH  11  45
HETATM   45  C   UNK     0      -1.554   6.205 -10.716  0.00  0.00     0.051 C 
BRANCH  45  46
HETATM   46  C   UNK     0      -1.959   7.276  -9.770  0.00  0.00     0.114 C 
BRANCH  46  47
HETATM   47  C   UNK     0      -0.847   8.267  -9.723  0.00  0.00     0.139 C 
HETATM   48  O   UNK     0       0.005   8.246 -10.623  0.00  0.00    -0.650 OA
BRANCH  47  49
HETATM   49  O   UNK     0      -0.764   9.183  -8.704  0.00  0.00    -0.776 OA
HETATM   50  H   UNK     0      -0.612   8.901  -7.729  0.00  0.00     0.167 HD
ENDBRANCH  47  49
ENDBRANCH  46  47
ENDBRANCH  45  46
ENDBRANCH  11  45
BRANCH  18  51
HETATM   51  C   UNK     0      -5.132   2.054 -15.043  0.00  0.00     0.051 C 
BRANCH  51  52
HETATM   52  C   UNK     0      -6.636   1.823 -15.063  0.00  0.00     0.114 C 
BRANCH  52  53
HETATM   53  C   UNK     0      -7.352   2.918 -15.745  0.00  0.00     0.139 C 
HETATM   54  O   UNK     0      -7.703   3.923 -15.106  0.00  0.00    -0.650 OA
BRANCH  53  55
HETATM   55  O   UNK     0      -7.629   2.818 -17.087  0.00  0.00    -0.776 OA
HETATM   56  H   UNK     0      -8.402   3.229 -17.556  0.00  0.00     0.167 HD
ENDBRANCH  53  55
ENDBRANCH  52  53
ENDBRANCH  51  52
ENDBRANCH  18  51
TORSDOF 16
ENDMDL
MODEL 6
REMARK VINA RESULT:      -9.4      3.267      9.873
REMARK  16 active torsions:
REMARK  status: ('A' for Active; 'I' for Inactive)
REMARK    1  A    between atoms: C_6  and  C_7 
REMARK    2  A    between atoms: C_7  and  C_8 
REMARK    3  A    between atoms: C_8  and  C_9 
REMARK    4  A    between atoms: C_9  and  O_11 
REMARK    5  A    between atoms: C_16  and  C_17 
REMARK    6  A    between atoms: C_17  and  C_18 
REMARK    7  A    between atoms: C_18  and  C_19 
REMARK    8  A    between atoms: C_19  and  O_21 
REMARK    9  A    between atoms: C_28  and  C_29 
REMARK   10  A    between atoms: C_29  and  C_30 
REMARK   11  A    between atoms: C_30  and  C_31 
REMARK   12  A    between atoms: C_31  and  O_33 
REMARK   13  A    between atoms: C_42  and  C_43 
REMARK   14  A    between atoms: C_43  and  C_44 
REMARK   15  A    between atoms: C_44  and  C_45 
REMARK   16  A    between atoms: C_45  and  O_47 
ROOT
HETATM    1  C   UNK     0      -1.605  -5.903  -6.522  0.00  0.00     0.051 C 
HETATM    2  C   UNK     0      -0.939  -4.674  -7.107  0.00  0.00    -0.031 A 
HETATM    3  C   UNK     0      -0.842  -4.271  -8.429  0.00  0.00     0.021 A 
HETATM    4  N   UNK     0      -0.130  -3.121  -8.489  0.00  0.00    -0.361 N 
HETATM    5  C   UNK     0       0.221  -2.777  -7.233  0.00  0.00     0.022 A 
HETATM    6  C   UNK     0      -0.266  -3.729  -6.343  0.00  0.00    -0.027 A 
HETATM    7  C   UNK     0       0.930  -1.553  -6.744  0.00  0.00     0.115 C 
HETATM    8  C   UNK     0       0.507  -0.230  -7.358  0.00  0.00     0.021 A 
HETATM    9  N   UNK     0      -0.717   0.159  -7.744  0.00  0.00    -0.361 N 
HETATM   10  C   UNK     0      -0.609   1.376  -8.319  0.00  0.00     0.022 A 
HETATM   11  C   UNK     0       0.721   1.785  -8.294  0.00  0.00    -0.027 A 
HETATM   12  C   UNK     0       1.430   0.779  -7.690  0.00  0.00    -0.031 A 
HETATM   13  C   UNK     0       2.921   0.788  -7.439  0.00  0.00     0.051 C 
HETATM   14  C   UNK     0      -1.741   2.174  -8.960  0.00  0.00     0.115 C 
HETATM   15  C   UNK     0      -2.401   1.471 -10.135  0.00  0.00     0.021 A 
HETATM   16  N   UNK     0      -3.009   0.270 -10.138  0.00  0.00    -0.361 N 
HETATM   17  C   UNK     0      -3.397  -0.023 -11.381  0.00  0.00     0.022 A 
HETATM   18  C   UNK     0      -3.032   1.043 -12.228  0.00  0.00    -0.027 A 
HETATM   19  C   UNK     0      -2.411   1.972 -11.435  0.00  0.00    -0.031 A 
HETATM   20  C   UNK     0      -1.888   3.303 -11.946  0.00  0.00     0.051 C 
HETATM   21  C   UNK     0      -4.053  -1.271 -11.926  0.00  0.00     0.115 C 
HETATM   22  C   UNK     0      -3.674  -2.590 -11.295  0.00  0.00     0.022 A 
HETATM   23  N   UNK     0      -2.464  -3.003 -10.897  0.00  0.00    -0.361 N 
HETATM   24  C   UNK     0      -2.607  -4.182 -10.258  0.00  0.00     0.021 A 
HETATM   25  C   UNK     0      -3.941  -4.541 -10.253  0.00  0.00    -0.031 A 
HETATM   26  C   UNK     0      -4.589  -5.791  -9.695  0.00  0.00     0.051 C 
HETATM   27  C   UNK     0      -4.644  -3.539 -10.912  0.00  0.00    -0.027 A 
HETATM   28  C   UNK     0      -1.535  -4.992  -9.551  0.00  0.00     0.115 C 
HETATM   29  H   UNK     0       0.153  -2.581  -9.423  0.00  0.00     0.165 HD
HETATM   30  H   UNK     0      -1.668  -0.401  -7.567  0.00  0.00     0.165 HD
HETATM   31  H   UNK     0      -3.212  -0.364  -9.236  0.00  0.00     0.165 HD
HETATM   32  H   UNK     0      -1.490  -2.487 -11.102  0.00  0.00     0.165 HD
ENDROOT
BRANCH   6  33
HETATM   33  C   UNK     0      -0.141  -3.808  -4.843  0.00  0.00     0.051 C 
BRANCH  33  34
HETATM   34  C   UNK     0       1.191  -4.402  -4.448  0.00  0.00     0.114 C 
BRANCH  34  35
HETATM   35  C   UNK     0       0.913  -5.594  -3.596  0.00  0.00     0.139 C 
HETATM   36  O   UNK     0       0.610  -6.701  -4.129  0.00  0.00    -0.650 OA
BRANCH  35  37
HETATM   37  O   UNK     0       0.973  -5.554  -2.209  0.00  0.00    -0.776 OA
HETATM   38  H   UNK     0       0.292  -5.057  -1.658  0.00  0.00     0.167 HD
ENDBRANCH  35  37
ENDBRANCH  34  35
ENDBRANCH  33  34
ENDBRANCH   6  33
BRANCH  27  39
HETATM   39  C   UNK     0      -6.108  -3.610 -11.169  0.00  0.00     0.051 C 
BRANCH  39  40
HETATM   40  C   UNK     0      -7.008  -2.909 -10.253  0.00  0.00     0.114 C 
BRANCH  40  41
HETATM   41  C   UNK     0      -7.854  -3.613  -9.315  0.00  0.00     0.139 C 
HETATM   42  O   UNK     0      -8.677  -3.049  -8.581  0.00  0.00    -0.650 OA
BRANCH  41  43
HETATM   43  O   UNK     0      -7.749  -5.029  -9.218  0.00  0.00    -0.776 OA
HETATM   44  H   UNK     0      -6.805  -5.371  -9.085  0.00  0.00     0.167 HD
ENDBRANCH  41  43
ENDBRANCH  40  41
ENDBRANCH  39  40
ENDBRANCH  27  39
BRANCH  11  45
HETATM   45  C   UNK     0       1.322   3.066  -8.808  0.00  0.00     0.051 C 
BRANCH  45  46
HETATM   46  C   UNK     0       1.489   3.108 -10.284  0.00  0.00     0.114 C 
BRANCH  46  47
HETATM   47  C   UNK     0       2.946   2.967 -10.567  0.00  0.00     0.139 C 
HETATM   48  O   UNK     0       3.756   3.425  -9.749  0.00  0.00    -0.650 OA
BRANCH  47  49
HETATM   49  O   UNK     0       3.383   2.344 -11.709  0.00  0.00    -0.776 OA
HETATM   50  H   UNK     0       4.369   2.093 -11.849  0.00  0.00     0.167 HD
ENDBRANCH  47  49
ENDBRANCH  46  47
ENDBRANCH  45  46
ENDBRANCH  11  45
BRANCH  18  51
HETATM   51  C   UNK     0      -3.282   1.177 -13.708  0.00  0.00     0.051 C 
BRANCH  51  52
HETATM   52  C   UNK     0      -2.531   0.033 -14.372  0.00  0.00     0.114 C 
BRANCH  52  53
HETATM   53  C   UNK     0      -1.142   0.405 -14.702  0.00  0.00     0.139 C 
HETATM   54  O   UNK     0      -0.220   0.119 -13.921  0.00  0.00    -0.650 OA
BRANCH  53  55
HETATM   55  O   UNK     0      -0.876   1.070 -15.874  0.00  0.00    -0.776 OA
HETATM   56  H   UNK     0       0.005   1.122 -16.329  0.00  0.00     0.167 HD
ENDBRANCH  53  55
ENDBRANCH  52  53
ENDBRANCH  51  52
ENDBRANCH  18  51
TORSDOF 16
ENDMDL
MODEL 7
REMARK VINA RESULT:      -9.4     32.460     36.021
REMARK  16 active torsions:
REMARK  status: ('A' for Active; 'I' for Inactive)
REMARK    1  A    between atoms: C_6  and  C_7 
REMARK    2  A    between atoms: C_7  and  C_8 
REMARK    3  A    between atoms: C_8  and  C_9 
REMARK    4  A    between atoms: C_9  and  O_11 
REMARK    5  A    between atoms: C_16  and  C_17 
REMARK    6  A    between atoms: C_17  and  C_18 
REMARK    7  A    between atoms: C_18  and  C_19 
REMARK    8  A    between atoms: C_19  and  O_21 
REMARK    9  A    between atoms: C_28  and  C_29 
REMARK   10  A    between atoms: C_29  and  C_30 
REMARK   11  A    between atoms: C_30  and  C_31 
REMARK   12  A    between atoms: C_31  and  O_33 
REMARK   13  A    between atoms: C_42  and  C_43 
REMARK   14  A    between atoms: C_43  and  C_44 
REMARK   15  A    between atoms: C_44  and  C_45 
REMARK   16  A    between atoms: C_45  and  O_47 
ROOT
HETATM    1  C   UNK     0     -25.042  15.873   9.586  0.00  0.00     0.051 C 
HETATM    2  C   UNK     0     -25.754  16.546   8.430  0.00  0.00    -0.031 A 
HETATM    3  C   UNK     0     -25.844  16.154   7.104  0.00  0.00     0.021 A 
HETATM    4  N   UNK     0     -26.556  17.078   6.417  0.00  0.00    -0.361 N 
HETATM    5  C   UNK     0     -26.929  18.047   7.279  0.00  0.00     0.022 A 
HETATM    6  C   UNK     0     -26.442  17.747   8.546  0.00  0.00    -0.027 A 
HETATM    7  C   UNK     0     -27.803  19.240   7.049  0.00  0.00     0.115 C 
HETATM    8  C   UNK     0     -29.054  19.019   6.216  0.00  0.00     0.021 A 
HETATM    9  N   UNK     0     -29.851  17.940   6.175  0.00  0.00    -0.361 N 
HETATM   10  C   UNK     0     -30.789  18.148   5.227  0.00  0.00     0.022 A 
HETATM   11  C   UNK     0     -30.596  19.398   4.647  0.00  0.00    -0.027 A 
HETATM   12  C   UNK     0     -29.505  19.953   5.266  0.00  0.00    -0.031 A 
HETATM   13  C   UNK     0     -28.926  21.316   4.961  0.00  0.00     0.051 C 
HETATM   14  C   UNK     0     -31.867  17.158   4.794  0.00  0.00     0.115 C 
HETATM   15  C   UNK     0     -31.318  15.857   4.231  0.00  0.00     0.021 A 
HETATM   16  N   UNK     0     -30.506  14.975   4.844  0.00  0.00    -0.361 N 
HETATM   17  C   UNK     0     -30.196  13.998   3.989  0.00  0.00     0.022 A 
HETATM   18  C   UNK     0     -30.844  14.250   2.764  0.00  0.00    -0.027 A 
HETATM   19  C   UNK     0     -31.545  15.416   2.929  0.00  0.00    -0.031 A 
HETATM   20  C   UNK     0     -32.421  16.034   1.854  0.00  0.00     0.051 C 
HETATM   21  C   UNK     0     -29.268  12.816   4.159  0.00  0.00     0.115 C 
HETATM   22  C   UNK     0     -28.043  13.010   5.021  0.00  0.00     0.022 A 
HETATM   23  N   UNK     0     -27.233  14.074   5.085  0.00  0.00    -0.361 N 
HETATM   24  C   UNK     0     -26.355  13.878   6.090  0.00  0.00     0.021 A 
HETATM   25  C   UNK     0     -26.599  12.653   6.680  0.00  0.00    -0.031 A 
HETATM   26  C   UNK     0     -25.857  11.977   7.814  0.00  0.00     0.051 C 
HETATM   27  C   UNK     0     -27.675  12.078   6.013  0.00  0.00    -0.027 A 
HETATM   28  C   UNK     0     -25.301  14.844   6.605  0.00  0.00     0.115 C 
HETATM   29  H   UNK     0     -26.756  17.060   5.321  0.00  0.00     0.165 HD
HETATM   30  H   UNK     0     -29.785  17.051   6.850  0.00  0.00     0.165 HD
HETATM   31  H   UNK     0     -30.183  15.017   5.916  0.00  0.00     0.165 HD
HETATM   32  H   UNK     0     -27.245  14.956   4.393  0.00  0.00     0.165 HD
ENDROOT
BRANCH   6  33
HETATM   33  C   UNK     0     -26.576  18.506   9.842  0.00  0.00     0.051 C 
BRANCH  33  34
HETATM   34  C   UNK     0     -27.977  18.380  10.393  0.00  0.00     0.114 C 
BRANCH  34  35
HETATM   35  C   UNK     0     -27.954  17.310  11.431  0.00  0.00     0.139 C 
HETATM   36  O   UNK     0     -26.894  17.077  12.082  0.00  0.00    -0.650 OA
BRANCH  35  37
HETATM   37  O   UNK     0     -29.067  16.535  11.733  0.00  0.00    -0.776 OA
HETATM   38  H   UNK     0     -29.001  15.701  12.294  0.00  0.00     0.167 HD
ENDBRANCH  35  37
ENDBRANCH  34  35
ENDBRANCH  33  34
ENDBRANCH   6  33
BRANCH  27  39
HETATM   39  C   UNK     0     -28.186  10.715   6.323  0.00  0.00     0.051 C 
BRANCH  39  40
HETATM   40  C   UNK     0     -29.200  10.576   7.368  0.00  0.00     0.114 C 
BRANCH  40  41
HETATM   41  C   UNK     0     -28.912   9.961   8.644  0.00  0.00     0.139 C 
HETATM   42  O   UNK     0     -29.413  10.338   9.713  0.00  0.00    -0.650 OA
BRANCH  41  43
HETATM   43  O   UNK     0     -28.008   8.863   8.694  0.00  0.00    -0.776 OA
HETATM   44  H   UNK     0     -28.293   8.060   8.147  0.00  0.00     0.167 HD
ENDBRANCH  41  43
ENDBRANCH  40  41
ENDBRANCH  39  40
ENDBRANCH  27  39
BRANCH  11  45
HETATM   45  C   UNK     0     -31.393  20.065   3.558  0.00  0.00     0.051 C 
BRANCH  45  46
HETATM   46  C   UNK     0     -31.050  19.606   2.188  0.00  0.00     0.114 C 
BRANCH  46  47
HETATM   47  C   UNK     0     -30.872  20.823   1.346  0.00  0.00     0.139 C 
HETATM   48  O   UNK     0     -31.069  20.733   0.126  0.00  0.00    -0.650 OA
BRANCH  47  49
HETATM   49  O   UNK     0     -30.498  22.017   1.908  0.00  0.00    -0.776 OA
HETATM   50  H   UNK     0     -30.754  22.920   1.491  0.00  0.00     0.167 HD
ENDBRANCH  47  49
ENDBRANCH  46  47
ENDBRANCH  45  46
ENDBRANCH  11  45
BRANCH  18  51
HETATM   51  C   UNK     0     -30.815  13.414   1.511  0.00  0.00     0.051 C 
BRANCH  51  52
HETATM   52  C   UNK     0     -32.108  12.613   1.502  0.00  0.00     0.114 C 
BRANCH  52  53
HETATM   53  C   UNK     0     -31.963  11.327   2.212  0.00  0.00     0.139 C 
HETATM   54  O   UNK     0     -31.614  10.311   1.591  0.00  0.00    -0.650 OA
BRANCH  53  55
HETATM   55  O   UNK     0     -32.219  11.263   3.560  0.00  0.00    -0.776 OA
HETATM   56  H   UNK     0     -32.666  10.514   4.035  0.00  0.00     0.167 HD
ENDBRANCH  53  55
ENDBRANCH  52  53
ENDBRANCH  51  52
ENDBRANCH  18  51
TORSDOF 16
ENDMDL
MODEL 8
REMARK VINA RESULT:      -9.4     30.207     33.955
REMARK  16 active torsions:
REMARK  status: ('A' for Active; 'I' for Inactive)
REMARK    1  A    between atoms: C_6  and  C_7 
REMARK    2  A    between atoms: C_7  and  C_8 
REMARK    3  A    between atoms: C_8  and  C_9 
REMARK    4  A    between atoms: C_9  and  O_11 
REMARK    5  A    between atoms: C_16  and  C_17 
REMARK    6  A    between atoms: C_17  and  C_18 
REMARK    7  A    between atoms: C_18  and  C_19 
REMARK    8  A    between atoms: C_19  and  O_21 
REMARK    9  A    between atoms: C_28  and  C_29 
REMARK   10  A    between atoms: C_29  and  C_30 
REMARK   11  A    between atoms: C_30  and  C_31 
REMARK   12  A    between atoms: C_31  and  O_33 
REMARK   13  A    between atoms: C_42  and  C_43 
REMARK   14  A    between atoms: C_43  and  C_44 
REMARK   15  A    between atoms: C_44  and  C_45 
REMARK   16  A    between atoms: C_45  and  O_47 
ROOT
HETATM    1  C   UNK     0     -19.484  15.420  12.035  0.00  0.00     0.051 C 
HETATM    2  C   UNK     0     -20.852  14.998  11.539  0.00  0.00    -0.031 A 
HETATM    3  C   UNK     0     -22.081  15.616  11.714  0.00  0.00     0.021 A 
HETATM    4  N   UNK     0     -23.040  14.866  11.121  0.00  0.00    -0.361 N 
HETATM    5  C   UNK     0     -22.448  13.789  10.564  0.00  0.00     0.022 A 
HETATM    6  C   UNK     0     -21.080  13.839  10.809  0.00  0.00    -0.027 A 
HETATM    7  C   UNK     0     -23.044  12.707   9.718  0.00  0.00     0.115 C 
HETATM    8  C   UNK     0     -24.038  13.141   8.656  0.00  0.00     0.021 A 
HETATM    9  N   UNK     0     -24.030  14.257   7.910  0.00  0.00    -0.361 N 
HETATM   10  C   UNK     0     -25.156  14.271   7.166  0.00  0.00     0.022 A 
HETATM   11  C   UNK     0     -25.905  13.128   7.432  0.00  0.00    -0.027 A 
HETATM   12  C   UNK     0     -25.206  12.412   8.370  0.00  0.00    -0.031 A 
HETATM   13  C   UNK     0     -25.638  11.088   8.959  0.00  0.00     0.051 C 
HETATM   14  C   UNK     0     -25.596  15.383   6.217  0.00  0.00     0.115 C 
HETATM   15  C   UNK     0     -25.806  16.726   6.897  0.00  0.00     0.021 A 
HETATM   16  N   UNK     0     -24.908  17.440   7.601  0.00  0.00    -0.361 N 
HETATM   17  C   UNK     0     -25.503  18.528   8.096  0.00  0.00     0.022 A 
HETATM   18  C   UNK     0     -26.851  18.528   7.686  0.00  0.00    -0.027 A 
HETATM   19  C   UNK     0     -27.028  17.394   6.935  0.00  0.00    -0.031 A 
HETATM   20  C   UNK     0     -28.338  17.022   6.264  0.00  0.00     0.051 C 
HETATM   21  C   UNK     0     -24.958  19.605   9.005  0.00  0.00     0.115 C 
HETATM   22  C   UNK     0     -23.934  19.195  10.038  0.00  0.00     0.022 A 
HETATM   23  N   UNK     0     -23.914  18.088  10.792  0.00  0.00    -0.361 N 
HETATM   24  C   UNK     0     -22.748  18.057  11.467  0.00  0.00     0.021 A 
HETATM   25  C   UNK     0     -22.003  19.176  11.148  0.00  0.00    -0.031 A 
HETATM   26  C   UNK     0     -20.650  19.604  11.678  0.00  0.00     0.051 C 
HETATM   27  C   UNK     0     -22.742  19.920  10.235  0.00  0.00    -0.027 A 
HETATM   28  C   UNK     0     -22.229  16.956  12.376  0.00  0.00     0.115 C 
HETATM   29  H   UNK     0     -24.133  15.082  11.134  0.00  0.00     0.165 HD
HETATM   30  H   UNK     0     -23.208  15.013   7.870  0.00  0.00     0.165 HD
HETATM   31  H   UNK     0     -23.819  17.196   7.713  0.00  0.00     0.165 HD
HETATM   32  H   UNK     0     -24.743  17.339  10.888  0.00  0.00     0.165 HD
ENDROOT
BRANCH   6  33
HETATM   33  C   UNK     0     -19.988  12.879  10.410  0.00  0.00     0.051 C 
BRANCH  33  34
HETATM   34  C   UNK     0     -19.556  12.039  11.588  0.00  0.00     0.114 C 
BRANCH  34  35
HETATM   35  C   UNK     0     -20.482  10.872  11.667  0.00  0.00     0.139 C 
HETATM   36  O   UNK     0     -21.436  10.871  12.499  0.00  0.00    -0.650 OA
BRANCH  35  37
HETATM   37  O   UNK     0     -20.352   9.756  10.850  0.00  0.00    -0.776 OA
HETATM   38  H   UNK     0     -21.149   9.296  10.442  0.00  0.00     0.167 HD
ENDBRANCH  35  37
ENDBRANCH  34  35
ENDBRANCH  33  34
ENDBRANCH   6  33
BRANCH  27  39
HETATM   39  C   UNK     0     -22.292  21.238   9.711  0.00  0.00     0.051 C 
BRANCH  39  40
HETATM   40  C   UNK     0     -22.291  22.383  10.621  0.00  0.00     0.114 C 
BRANCH  40  41
HETATM   41  C   UNK     0     -21.439  23.532  10.412  0.00  0.00     0.139 C 
HETATM   42  O   UNK     0     -21.331  24.114   9.324  0.00  0.00    -0.650 OA
BRANCH  41  43
HETATM   43  O   UNK     0     -20.677  24.035  11.505  0.00  0.00    -0.776 OA
HETATM   44  H   UNK     0     -20.990  24.932  11.856  0.00  0.00     0.167 HD
ENDBRANCH  41  43
ENDBRANCH  40  41
ENDBRANCH  39  40
ENDBRANCH  27  39
BRANCH  11  45
HETATM   45  C   UNK     0     -27.222  12.706   6.839  0.00  0.00     0.051 C 
BRANCH  45  46
HETATM   46  C   UNK     0     -27.113  12.103   5.486  0.00  0.00     0.114 C 
BRANCH  46  47
HETATM   47  C   UNK     0     -27.647  10.714   5.577  0.00  0.00     0.139 C 
HETATM   48  O   UNK     0     -27.173   9.847   4.831  0.00  0.00    -0.650 OA
BRANCH  47  49
HETATM   49  O   UNK     0     -28.643  10.402   6.468  0.00  0.00    -0.776 OA
HETATM   50  H   UNK     0     -29.375   9.716   6.248  0.00  0.00     0.167 HD
ENDBRANCH  47  49
ENDBRANCH  46  47
ENDBRANCH  45  46
ENDBRANCH  11  45
BRANCH  18  51
HETATM   51  C   UNK     0     -27.908  19.562   7.976  0.00  0.00     0.051 C 
BRANCH  51  52
HETATM   52  C   UNK     0     -28.641  19.084   9.221  0.00  0.00     0.114 C 
BRANCH  52  53
HETATM   53  C   UNK     0     -28.388  19.963  10.379  0.00  0.00     0.139 C 
HETATM   54  O   UNK     0     -27.511  19.666  11.205  0.00  0.00    -0.650 OA
BRANCH  53  55
HETATM   55  O   UNK     0     -29.131  21.108  10.538  0.00  0.00    -0.776 OA
HETATM   56  H   UNK     0     -29.352  21.545  11.401  0.00  0.00     0.167 HD
ENDBRANCH  53  55
ENDBRANCH  52  53
ENDBRANCH  51  52
ENDBRANCH  18  51
TORSDOF 16
ENDMDL
MODEL 9
REMARK VINA RESULT:      -9.0     30.586     34.108
REMARK  16 active torsions:
REMARK  status: ('A' for Active; 'I' for Inactive)
REMARK    1  A    between atoms: C_6  and  C_7 
REMARK    2  A    between atoms: C_7  and  C_8 
REMARK    3  A    between atoms: C_8  and  C_9 
REMARK    4  A    between atoms: C_9  and  O_11 
REMARK    5  A    between atoms: C_16  and  C_17 
REMARK    6  A    between atoms: C_17  and  C_18 
REMARK    7  A    between atoms: C_18  and  C_19 
REMARK    8  A    between atoms: C_19  and  O_21 
REMARK    9  A    between atoms: C_28  and  C_29 
REMARK   10  A    between atoms: C_29  and  C_30 
REMARK   11  A    between atoms: C_30  and  C_31 
REMARK   12  A    between atoms: C_31  and  O_33 
REMARK   13  A    between atoms: C_42  and  C_43 
REMARK   14  A    between atoms: C_43  and  C_44 
REMARK   15  A    between atoms: C_44  and  C_45 
REMARK   16  A    between atoms: C_45  and  O_47 
ROOT
HETATM    1  C   UNK     0     -27.040  21.441   7.435  0.00  0.00     0.051 C 
HETATM    2  C   UNK     0     -26.141  20.512   8.225  0.00  0.00    -0.031 A 
HETATM    3  C   UNK     0     -26.463  19.360   8.924  0.00  0.00     0.021 A 
HETATM    4  N   UNK     0     -25.343  18.869   9.507  0.00  0.00    -0.361 N 
HETATM    5  C   UNK     0     -24.313  19.678   9.186  0.00  0.00     0.022 A 
HETATM    6  C   UNK     0     -24.777  20.718   8.387  0.00  0.00    -0.027 A 
HETATM    7  C   UNK     0     -22.855  19.532   9.495  0.00  0.00     0.115 C 
HETATM    8  C   UNK     0     -22.262  18.143   9.343  0.00  0.00     0.021 A 
HETATM    9  N   UNK     0     -22.563  17.200   8.437  0.00  0.00    -0.361 N 
HETATM   10  C   UNK     0     -21.856  16.090   8.736  0.00  0.00     0.022 A 
HETATM   11  C   UNK     0     -21.072  16.327   9.861  0.00  0.00    -0.027 A 
HETATM   12  C   UNK     0     -21.323  17.618  10.249  0.00  0.00    -0.031 A 
HETATM   13  C   UNK     0     -20.686  18.316  11.429  0.00  0.00     0.051 C 
HETATM   14  C   UNK     0     -21.931  14.750   8.009  0.00  0.00     0.115 C 
HETATM   15  C   UNK     0     -23.309  14.108   8.043  0.00  0.00     0.021 A 
HETATM   16  N   UNK     0     -24.466  14.622   7.585  0.00  0.00    -0.361 N 
HETATM   17  C   UNK     0     -25.461  13.778   7.865  0.00  0.00     0.022 A 
HETATM   18  C   UNK     0     -24.926  12.656   8.528  0.00  0.00    -0.027 A 
HETATM   19  C   UNK     0     -23.577  12.874   8.632  0.00  0.00    -0.031 A 
HETATM   20  C   UNK     0     -22.608  11.886   9.255  0.00  0.00     0.051 C 
HETATM   21  C   UNK     0     -26.948  13.917   7.630  0.00  0.00     0.115 C 
HETATM   22  C   UNK     0     -27.544  15.301   7.735  0.00  0.00     0.022 A 
HETATM   23  N   UNK     0     -27.261  16.262   8.624  0.00  0.00    -0.361 N 
HETATM   24  C   UNK     0     -27.917  17.382   8.261  0.00  0.00     0.021 A 
HETATM   25  C   UNK     0     -28.648  17.134   7.115  0.00  0.00    -0.031 A 
HETATM   26  C   UNK     0     -29.572  18.063   6.354  0.00  0.00     0.051 C 
HETATM   27  C   UNK     0     -28.426  15.809   6.759  0.00  0.00    -0.027 A 
HETATM   28  C   UNK     0     -27.839  18.755   8.905  0.00  0.00     0.115 C 
HETATM   29  H   UNK     0     -25.296  17.976  10.172  0.00  0.00     0.165 HD
HETATM   30  H   UNK     0     -23.236  17.331   7.554  0.00  0.00     0.165 HD
HETATM   31  H   UNK     0     -24.576  15.578   7.010  0.00  0.00     0.165 HD
HETATM   32  H   UNK     0     -26.629  16.145   9.543  0.00  0.00     0.165 HD
ENDROOT
BRANCH   6  33
HETATM   33  C   UNK     0     -24.033  21.879   7.777  0.00  0.00     0.051 C 
BRANCH  33  34
HETATM   34  C   UNK     0     -23.735  22.931   8.819  0.00  0.00     0.114 C 
BRANCH  34  35
HETATM   35  C   UNK     0     -22.382  23.482   8.523  0.00  0.00     0.139 C 
HETATM   36  O   UNK     0     -21.348  22.908   8.973  0.00  0.00    -0.650 OA
BRANCH  35  37
HETATM   37  O   UNK     0     -22.189  24.624   7.755  0.00  0.00    -0.776 OA
HETATM   38  H   UNK     0     -22.124  25.541   8.168  0.00  0.00     0.167 HD
ENDBRANCH  35  37
ENDBRANCH  34  35
ENDBRANCH  33  34
ENDBRANCH   6  33
BRANCH  27  39
HETATM   39  C   UNK     0     -29.106  15.154   5.609  0.00  0.00     0.051 C 
BRANCH  39  40
HETATM   40  C   UNK     0     -30.285  14.330   5.876  0.00  0.00     0.114 C 
BRANCH  40  41
HETATM   41  C   UNK     0     -30.182  12.974   6.367  0.00  0.00     0.139 C 
HETATM   42  O   UNK     0     -30.023  11.991   5.631  0.00  0.00    -0.650 OA
BRANCH  41  43
HETATM   43  O   UNK     0     -30.265  12.738   7.769  0.00  0.00    -0.776 OA
HETATM   44  H   UNK     0     -29.817  11.884   8.078  0.00  0.00     0.167 HD
ENDBRANCH  41  43
ENDBRANCH  40  41
ENDBRANCH  39  40
ENDBRANCH  27  39
BRANCH  11  45
HETATM   45  C   UNK     0     -20.117  15.394  10.557  0.00  0.00     0.051 C 
BRANCH  45  46
HETATM   46  C   UNK     0     -20.759  14.512  11.566  0.00  0.00     0.114 C 
BRANCH  46  47
HETATM   47  C   UNK     0     -20.039  13.207  11.533  0.00  0.00     0.139 C 
HETATM   48  O   UNK     0     -20.050  12.499  12.549  0.00  0.00    -0.650 OA
BRANCH  47  49
HETATM   49  O   UNK     0     -19.377  12.798  10.402  0.00  0.00    -0.776 OA
HETATM   50  H   UNK     0     -19.047  13.463   9.693  0.00  0.00     0.167 HD
ENDBRANCH  47  49
ENDBRANCH  46  47
ENDBRANCH  45  46
ENDBRANCH  11  45
BRANCH  18  51
HETATM   51  C   UNK     0     -25.658  11.433   9.017  0.00  0.00     0.051 C 
BRANCH  51  52
HETATM   52  C   UNK     0     -26.079  10.663   7.774  0.00  0.00     0.114 C 
BRANCH  52  53
HETATM   53  C   UNK     0     -27.539  10.451   7.727  0.00  0.00     0.139 C 
HETATM   54  O   UNK     0     -28.246  10.781   8.693  0.00  0.00    -0.650 OA
BRANCH  53  55
HETATM   55  O   UNK     0     -28.108   9.885   6.613  0.00  0.00    -0.776 OA
HETATM   56  H   UNK     0     -28.781  10.312   6.020  0.00  0.00     0.167 HD
ENDBRANCH  53  55
ENDBRANCH  52  53
ENDBRANCH  51  52
ENDBRANCH  18  51
TORSDOF 16
ENDMDL
MODEL 10
REMARK VINA RESULT:      -9.0     30.901     34.669
REMARK  16 active torsions:
REMARK  status: ('A' for Active; 'I' for Inactive)
REMARK    1  A    between atoms: C_6  and  C_7 
REMARK    2  A    between atoms: C_7  and  C_8 
REMARK    3  A    between atoms: C_8  and  C_9 
REMARK    4  A    between atoms: C_9  and  O_11 
REMARK    5  A    between atoms: C_16  and  C_17 
REMARK    6  A    between atoms: C_17  and  C_18 
REMARK    7  A    between atoms: C_18  and  C_19 
REMARK    8  A    between atoms: C_19  and  O_21 
REMARK    9  A    between atoms: C_28  and  C_29 
REMARK   10  A    between atoms: C_29  and  C_30 
REMARK   11  A    between atoms: C_30  and  C_31 
REMARK   12  A    between atoms: C_31  and  O_33 
REMARK   13  A    between atoms: C_42  and  C_43 
REMARK   14  A    between atoms: C_43  and  C_44 
REMARK   15  A    between atoms: C_44  and  C_45 
REMARK   16  A    between atoms: C_45  and  O_47 
ROOT
HETATM    1  C   UNK     0     -21.508  17.763  11.995  0.00  0.00     0.051 C 
HETATM    2  C   UNK     0     -22.499  17.997  10.872  0.00  0.00    -0.031 A 
HETATM    3  C   UNK     0     -22.546  17.428   9.608  0.00  0.00     0.021 A 
HETATM    4  N   UNK     0     -23.589  17.957   8.926  0.00  0.00    -0.361 N 
HETATM    5  C   UNK     0     -24.212  18.843   9.729  0.00  0.00     0.022 A 
HETATM    6  C   UNK     0     -23.555  18.895  10.954  0.00  0.00    -0.027 A 
HETATM    7  C   UNK     0     -25.466  19.626   9.492  0.00  0.00     0.115 C 
HETATM    8  C   UNK     0     -26.618  18.885   8.836  0.00  0.00     0.021 A 
HETATM    9  N   UNK     0     -26.985  17.603   8.992  0.00  0.00    -0.361 N 
HETATM   10  C   UNK     0     -28.005  17.353   8.144  0.00  0.00     0.022 A 
HETATM   11  C   UNK     0     -28.311  18.508   7.430  0.00  0.00    -0.027 A 
HETATM   12  C   UNK     0     -27.441  19.477   7.861  0.00  0.00    -0.031 A 
HETATM   13  C   UNK     0     -27.406  20.904   7.363  0.00  0.00     0.051 C 
HETATM   14  C   UNK     0     -28.695  16.008   7.936  0.00  0.00     0.115 C 
HETATM   15  C   UNK     0     -27.767  14.911   7.439  0.00  0.00     0.021 A 
HETATM   16  N   UNK     0     -26.652  14.447   8.033  0.00  0.00    -0.361 N 
HETATM   17  C   UNK     0     -26.083  13.532   7.244  0.00  0.00     0.022 A 
HETATM   18  C   UNK     0     -26.871  13.386   6.085  0.00  0.00    -0.027 A 
HETATM   19  C   UNK     0     -27.924  14.254   6.220  0.00  0.00    -0.031 A 
HETATM   20  C   UNK     0     -29.041  14.391   5.202  0.00  0.00     0.051 C 
HETATM   21  C   UNK     0     -24.788  12.771   7.416  0.00  0.00     0.115 C 
HETATM   22  C   UNK     0     -23.648  13.481   8.106  0.00  0.00     0.022 A 
HETATM   23  N   UNK     0     -23.263  14.757   7.973  0.00  0.00    -0.361 N 
HETATM   24  C   UNK     0     -22.298  15.004   8.882  0.00  0.00     0.021 A 
HETATM   25  C   UNK     0     -22.048  13.857   9.610  0.00  0.00    -0.031 A 
HETATM   26  C   UNK     0     -21.030  13.628  10.708  0.00  0.00     0.051 C 
HETATM   27  C   UNK     0     -22.900  12.868   9.132  0.00  0.00    -0.027 A 
HETATM   28  C   UNK     0     -21.616  16.330   9.176  0.00  0.00     0.115 C 
HETATM   29  H   UNK     0     -23.853  17.730   7.867  0.00  0.00     0.165 HD
HETATM   30  H   UNK     0     -26.558  16.886   9.735  0.00  0.00     0.165 HD
HETATM   31  H   UNK     0     -26.283  14.735   9.051  0.00  0.00     0.165 HD
HETATM   32  H   UNK     0     -23.639  15.483   7.207  0.00  0.00     0.165 HD
ENDROOT
BRANCH   6  33
HETATM   33  C   UNK     0     -23.848  19.724  12.178  0.00  0.00     0.051 C 
BRANCH  33  34
HETATM   34  C   UNK     0     -22.946  20.933  12.235  0.00  0.00     0.114 C 
BRANCH  34  35
HETATM   35  C   UNK     0     -22.478  21.076  13.643  0.00  0.00     0.139 C 
HETATM   36  O   UNK     0     -21.283  21.416  13.887  0.00  0.00    -0.650 OA
BRANCH  35  37
HETATM   37  O   UNK     0     -23.308  20.852  14.735  0.00  0.00    -0.776 OA
HETATM   38  H   UNK     0     -22.993  20.356  15.553  0.00  0.00     0.167 HD
ENDBRANCH  35  37
ENDBRANCH  34  35
ENDBRANCH  33  34
ENDBRANCH   6  33
BRANCH  27  39
HETATM   39  C   UNK     0     -22.872  11.465   9.627  0.00  0.00     0.051 C 
BRANCH  39  40
HETATM   40  C   UNK     0     -23.508  11.170  10.911  0.00  0.00     0.114 C 
BRANCH  40  41
HETATM   41  C   UNK     0     -24.848  10.637  11.002  0.00  0.00     0.139 C 
HETATM   42  O   UNK     0     -25.587  10.472  10.022  0.00  0.00    -0.650 OA
BRANCH  41  43
HETATM   43  O   UNK     0     -25.363  10.277  12.280  0.00  0.00    -0.776 OA
HETATM   44  H   UNK     0     -26.251  10.707  12.511  0.00  0.00     0.167 HD
ENDBRANCH  41  43
ENDBRANCH  40  41
ENDBRANCH  39  40
ENDBRANCH  27  39
BRANCH  11  45
HETATM   45  C   UNK     0     -29.373  18.715   6.384  0.00  0.00     0.051 C 
BRANCH  45  46
HETATM   46  C   UNK     0     -28.987  18.248   5.028  0.00  0.00     0.114 C 
BRANCH  46  47
HETATM   47  C   UNK     0     -29.289  19.356   4.077  0.00  0.00     0.139 C 
HETATM   48  O   UNK     0     -30.247  19.227   3.302  0.00  0.00    -0.650 OA
BRANCH  47  49
HETATM   49  O   UNK     0     -28.522  20.494   4.058  0.00  0.00    -0.776 OA
HETATM   50  H   UNK     0     -27.647  20.552   3.524  0.00  0.00     0.167 HD
ENDBRANCH  47  49
ENDBRANCH  46  47
ENDBRANCH  45  46
ENDBRANCH  11  45
BRANCH  18  51
HETATM   51  C   UNK     0     -26.645  12.455   4.922  0.00  0.00     0.051 C 
BRANCH  51  52
HETATM   52  C   UNK     0     -27.566  11.264   5.144  0.00  0.00     0.114 C 
BRANCH  52  53
HETATM   53  C   UNK     0     -26.853  10.124   5.752  0.00  0.00     0.139 C 
HETATM   54  O   UNK     0     -27.449   9.362   6.530  0.00  0.00    -0.650 OA
BRANCH  53  55
HETATM   55  O   UNK     0     -25.528   9.915   5.455  0.00  0.00    -0.776 OA
HETATM   56  H   UNK     0     -24.782  10.545   5.636  0.00  0.00     0.167 HD
ENDBRANCH  53  55
ENDBRANCH  52  53
ENDBRANCH  51  52
ENDBRANCH  18  51
TORSDOF 16
ENDMDL
MODEL 11
REMARK VINA RESULT:      -8.9     30.431     35.157
REMARK  16 active torsions:
REMARK  status: ('A' for Active; 'I' for Inactive)
REMARK    1  A    between atoms: C_6  and  C_7 
REMARK    2  A    between atoms: C_7  and  C_8 
REMARK    3  A    between atoms: C_8  and  C_9 
REMARK    4  A    between atoms: C_9  and  O_11 
REMARK    5  A    between atoms: C_16  and  C_17 
REMARK    6  A    between atoms: C_17  and  C_18 
REMARK    7  A    between atoms: C_18  and  C_19 
REMARK    8  A    between atoms: C_19  and  O_21 
REMARK    9  A    between atoms: C_28  and  C_29 
REMARK   10  A    between atoms: C_29  and  C_30 
REMARK   11  A    between atoms: C_30  and  C_31 
REMARK   12  A    between atoms: C_31  and  O_33 
REMARK   13  A    between atoms: C_42  and  C_43 
REMARK   14  A    between atoms: C_43  and  C_44 
REMARK   15  A    between atoms: C_44  and  C_45 
REMARK   16  A    between atoms: C_45  and  O_47 
ROOT
HETATM    1  C   UNK     0     -25.527   9.885   9.173  0.00  0.00     0.051 C 
HETATM    2  C   UNK     0     -25.140  11.303   8.802  0.00  0.00    -0.031 A 
HETATM    3  C   UNK     0     -25.535  12.067   7.716  0.00  0.00     0.021 A 
HETATM    4  N   UNK     0     -24.913  13.268   7.772  0.00  0.00    -0.361 N 
HETATM    5  C   UNK     0     -24.138  13.290   8.876  0.00  0.00     0.022 A 
HETATM    6  C   UNK     0     -24.254  12.075   9.542  0.00  0.00    -0.027 A 
HETATM    7  C   UNK     0     -23.322  14.409   9.445  0.00  0.00     0.115 C 
HETATM    8  C   UNK     0     -23.962  15.786   9.446  0.00  0.00     0.021 A 
HETATM    9  N   UNK     0     -25.250  16.110   9.636  0.00  0.00    -0.361 N 
HETATM   10  C   UNK     0     -25.379  17.442   9.459  0.00  0.00     0.022 A 
HETATM   11  C   UNK     0     -24.137  17.993   9.156  0.00  0.00    -0.027 A 
HETATM   12  C   UNK     0     -23.240  16.955   9.146  0.00  0.00    -0.031 A 
HETATM   13  C   UNK     0     -21.759  17.083   8.867  0.00  0.00     0.051 C 
HETATM   14  C   UNK     0     -26.680  18.237   9.516  0.00  0.00     0.115 C 
HETATM   15  C   UNK     0     -27.707  17.812   8.480  0.00  0.00     0.021 A 
HETATM   16  N   UNK     0     -28.254  16.592   8.317  0.00  0.00    -0.361 N 
HETATM   17  C   UNK     0     -29.059  16.611   7.252  0.00  0.00     0.022 A 
HETATM   18  C   UNK     0     -29.044  17.908   6.701  0.00  0.00    -0.027 A 
HETATM   19  C   UNK     0     -28.195  18.650   7.480  0.00  0.00    -0.031 A 
HETATM   20  C   UNK     0     -27.916  20.125   7.255  0.00  0.00     0.051 C 
HETATM   21  C   UNK     0     -29.845  15.492   6.608  0.00  0.00     0.115 C 
HETATM   22  C   UNK     0     -29.240  14.108   6.639  0.00  0.00     0.022 A 
HETATM   23  N   UNK     0     -27.961  13.757   6.457  0.00  0.00    -0.361 N 
HETATM   24  C   UNK     0     -27.842  12.439   6.714  0.00  0.00     0.021 A 
HETATM   25  C   UNK     0     -29.078  11.926   7.061  0.00  0.00    -0.031 A 
HETATM   26  C   UNK     0     -29.458  10.499   7.396  0.00  0.00     0.051 C 
HETATM   27  C   UNK     0     -29.989  12.975   7.019  0.00  0.00    -0.027 A 
HETATM   28  C   UNK     0     -26.572  11.605   6.732  0.00  0.00     0.115 C 
HETATM   29  H   UNK     0     -24.996  14.078   7.011  0.00  0.00     0.165 HD
HETATM   30  H   UNK     0     -26.063  15.407   9.945  0.00  0.00     0.165 HD
HETATM   31  H   UNK     0     -28.105  15.712   8.995  0.00  0.00     0.165 HD
HETATM   32  H   UNK     0     -27.136  14.428   6.102  0.00  0.00     0.165 HD
ENDROOT
BRANCH   6  33
HETATM   33  C   UNK     0     -23.593  11.597  10.811  0.00  0.00     0.051 C 
BRANCH  33  34
HETATM   34  C   UNK     0     -22.158  11.205  10.551  0.00  0.00     0.114 C 
BRANCH  34  35
HETATM   35  C   UNK     0     -22.133   9.733  10.315  0.00  0.00     0.139 C 
HETATM   36  O   UNK     0     -22.744   8.951  11.099  0.00  0.00    -0.650 OA
BRANCH  35  37
HETATM   37  O   UNK     0     -21.456   9.157   9.247  0.00  0.00    -0.776 OA
HETATM   38  H   UNK     0     -21.343   8.160   9.160  0.00  0.00     0.167 HD
ENDBRANCH  35  37
ENDBRANCH  34  35
ENDBRANCH  33  34
ENDBRANCH   6  33
BRANCH  27  39
HETATM   39  C   UNK     0     -31.445  12.794   7.265  0.00  0.00     0.051 C 
BRANCH  39  40
HETATM   40  C   UNK     0     -32.312  12.511   6.122  0.00  0.00     0.114 C 
BRANCH  40  41
HETATM   41  C   UNK     0     -31.918  12.807   4.763  0.00  0.00     0.139 C 
HETATM   42  O   UNK     0     -32.107  13.904   4.220  0.00  0.00    -0.650 OA
BRANCH  41  43
HETATM   43  O   UNK     0     -31.276  11.796   3.993  0.00  0.00    -0.776 OA
HETATM   44  H   UNK     0     -30.422  11.437   4.402  0.00  0.00     0.167 HD
ENDBRANCH  41  43
ENDBRANCH  40  41
ENDBRANCH  39  40
ENDBRANCH  27  39
BRANCH  11  45
HETATM   45  C   UNK     0     -23.786  19.431   8.886  0.00  0.00     0.051 C 
BRANCH  45  46
HETATM   46  C   UNK     0     -23.544  20.236  10.111  0.00  0.00     0.114 C 
BRANCH  46  47
HETATM   47  C   UNK     0     -22.074  20.468  10.202  0.00  0.00     0.139 C 
HETATM   48  O   UNK     0     -21.467  20.042  11.195  0.00  0.00    -0.650 OA
BRANCH  47  49
HETATM   49  O   UNK     0     -21.405  21.140   9.211  0.00  0.00    -0.776 OA
HETATM   50  H   UNK     0     -21.797  21.974   8.757  0.00  0.00     0.167 HD
ENDBRANCH  47  49
ENDBRANCH  46  47
ENDBRANCH  45  46
ENDBRANCH  11  45
BRANCH  18  51
HETATM   51  C   UNK     0     -29.814  18.417   5.510  0.00  0.00     0.051 C 
BRANCH  51  52
HETATM   52  C   UNK     0     -31.284  18.174   5.817  0.00  0.00     0.114 C 
BRANCH  52  53
HETATM   53  C   UNK     0     -32.003  17.614   4.657  0.00  0.00     0.139 C 
HETATM   54  O   UNK     0     -31.720  17.992   3.509  0.00  0.00    -0.650 OA
BRANCH  53  55
HETATM   55  O   UNK     0     -32.987  16.677   4.855  0.00  0.00    -0.776 OA
HETATM   56  H   UNK     0     -33.025  16.017   5.596  0.00  0.00     0.167 HD
ENDBRANCH  53  55
ENDBRANCH  52  53
ENDBRANCH  51  52
ENDBRANCH  18  51
TORSDOF 16
ENDMDL
MODEL 12
REMARK VINA RESULT:      -8.9     29.857     32.686
REMARK  16 active torsions:
REMARK  status: ('A' for Active; 'I' for Inactive)
REMARK    1  A    between atoms: C_6  and  C_7 
REMARK    2  A    between atoms: C_7  and  C_8 
REMARK    3  A    between atoms: C_8  and  C_9 
REMARK    4  A    between atoms: C_9  and  O_11 
REMARK    5  A    between atoms: C_16  and  C_17 
REMARK    6  A    between atoms: C_17  and  C_18 
REMARK    7  A    between atoms: C_18  and  C_19 
REMARK    8  A    between atoms: C_19  and  O_21 
REMARK    9  A    between atoms: C_28  and  C_29 
REMARK   10  A    between atoms: C_29  and  C_30 
REMARK   11  A    between atoms: C_30  and  C_31 
REMARK   12  A    between atoms: C_31  and  O_33 
REMARK   13  A    between atoms: C_42  and  C_43 
REMARK   14  A    between atoms: C_43  and  C_44 
REMARK   15  A    between atoms: C_44  and  C_45 
REMARK   16  A    between atoms: C_45  and  O_47 
ROOT
HETATM    1  C   UNK     0     -28.949  17.458   6.484  0.00  0.00     0.051 C 
HETATM    2  C   UNK     0     -28.193  16.159   6.295  0.00  0.00    -0.031 A 
HETATM    3  C   UNK     0     -26.825  15.934   6.263  0.00  0.00     0.021 A 
HETATM    4  N   UNK     0     -26.600  14.617   6.038  0.00  0.00    -0.361 N 
HETATM    5  C   UNK     0     -27.794  13.997   5.935  0.00  0.00     0.022 A 
HETATM    6  C   UNK     0     -28.812  14.933   6.088  0.00  0.00    -0.027 A 
HETATM    7  C   UNK     0     -28.100  12.540   5.782  0.00  0.00     0.115 C 
HETATM    8  C   UNK     0     -27.285  11.580   6.630  0.00  0.00     0.021 A 
HETATM    9  N   UNK     0     -26.826  11.750   7.879  0.00  0.00    -0.361 N 
HETATM   10  C   UNK     0     -26.073  10.677   8.200  0.00  0.00     0.022 A 
HETATM   11  C   UNK     0     -26.054   9.786   7.130  0.00  0.00    -0.027 A 
HETATM   12  C   UNK     0     -26.815  10.348   6.138  0.00  0.00    -0.031 A 
HETATM   13  C   UNK     0     -27.083   9.730   4.784  0.00  0.00     0.051 C 
HETATM   14  C   UNK     0     -25.301  10.473   9.500  0.00  0.00     0.115 C 
HETATM   15  C   UNK     0     -24.238  11.529   9.757  0.00  0.00     0.021 A 
HETATM   16  N   UNK     0     -24.411  12.860   9.862  0.00  0.00    -0.361 N 
HETATM   17  C   UNK     0     -23.222  13.445  10.019  0.00  0.00     0.022 A 
HETATM   18  C   UNK     0     -22.227  12.447  10.026  0.00  0.00    -0.027 A 
HETATM   19  C   UNK     0     -22.877  11.251   9.863  0.00  0.00    -0.031 A 
HETATM   20  C   UNK     0     -22.176   9.905   9.850  0.00  0.00     0.051 C 
HETATM   21  C   UNK     0     -22.865  14.911  10.110  0.00  0.00     0.115 C 
HETATM   22  C   UNK     0     -23.696  15.883   9.306  0.00  0.00     0.022 A 
HETATM   23  N   UNK     0     -24.170  15.738   8.062  0.00  0.00    -0.361 N 
HETATM   24  C   UNK     0     -24.980  16.782   7.793  0.00  0.00     0.021 A 
HETATM   25  C   UNK     0     -25.020  17.625   8.887  0.00  0.00    -0.031 A 
HETATM   26  C   UNK     0     -25.754  18.940   9.050  0.00  0.00     0.051 C 
HETATM   27  C   UNK     0     -24.206  17.071   9.868  0.00  0.00    -0.027 A 
HETATM   28  C   UNK     0     -25.817  17.011   6.546  0.00  0.00     0.115 C 
HETATM   29  H   UNK     0     -25.599  14.142   5.915  0.00  0.00     0.165 HD
HETATM   30  H   UNK     0     -27.073  12.604   8.556  0.00  0.00     0.165 HD
HETATM   31  H   UNK     0     -25.397  13.394   9.873  0.00  0.00     0.165 HD
HETATM   32  H   UNK     0     -23.902  14.919   7.345  0.00  0.00     0.165 HD
ENDROOT
BRANCH   6  33
HETATM   33  C   UNK     0     -30.308  14.753   6.050  0.00  0.00     0.051 C 
BRANCH  33  34
HETATM   34  C   UNK     0     -30.852  14.504   7.437  0.00  0.00     0.114 C 
BRANCH  34  35
HETATM   35  C   UNK     0     -31.277  13.076   7.500  0.00  0.00     0.139 C 
HETATM   36  O   UNK     0     -32.081  12.612   6.641  0.00  0.00    -0.650 OA
BRANCH  35  37
HETATM   37  O   UNK     0     -30.821  12.201   8.479  0.00  0.00    -0.776 OA
HETATM   38  H   UNK     0     -31.112  12.276   9.440  0.00  0.00     0.167 HD
ENDBRANCH  35  37
ENDBRANCH  34  35
ENDBRANCH  33  34
ENDBRANCH   6  33
BRANCH  27  39
HETATM   39  C   UNK     0     -23.942  17.736  11.173  0.00  0.00     0.051 C 
BRANCH  39  40
HETATM   40  C   UNK     0     -24.816  17.420  12.302  0.00  0.00     0.114 C 
BRANCH  40  41
HETATM   41  C   UNK     0     -26.176  17.906  12.384  0.00  0.00     0.139 C 
HETATM   42  O   UNK     0     -26.471  19.055  12.740  0.00  0.00    -0.650 OA
BRANCH  41  43
HETATM   43  O   UNK     0     -27.244  17.030  12.041  0.00  0.00    -0.776 OA
HETATM   44  H   UNK     0     -28.158  17.346  12.341  0.00  0.00     0.167 HD
ENDBRANCH  41  43
ENDBRANCH  40  41
ENDBRANCH  39  40
ENDBRANCH  27  39
BRANCH  11  45
HETATM   45  C   UNK     0     -25.358   8.455   7.026  0.00  0.00     0.051 C 
BRANCH  45  46
HETATM   46  C   UNK     0     -26.278   7.289   7.024  0.00  0.00     0.114 C 
BRANCH  46  47
HETATM   47  C   UNK     0     -26.146   6.625   5.695  0.00  0.00     0.139 C 
HETATM   48  O   UNK     0     -27.065   5.889   5.307  0.00  0.00    -0.650 OA
BRANCH  47  49
HETATM   49  O   UNK     0     -25.033   6.822   4.919  0.00  0.00    -0.776 OA
HETATM   50  H   UNK     0     -24.788   6.190   4.147  0.00  0.00     0.167 HD
ENDBRANCH  47  49
ENDBRANCH  46  47
ENDBRANCH  45  46
ENDBRANCH  11  45
BRANCH  18  51
HETATM   51  C   UNK     0     -20.741  12.622  10.200  0.00  0.00     0.051 C 
BRANCH  51  52
HETATM   52  C   UNK     0     -20.509  12.838  11.688  0.00  0.00     0.114 C 
BRANCH  52  53
HETATM   53  C   UNK     0     -19.920  11.647  12.331  0.00  0.00     0.139 C 
HETATM   54  O   UNK     0     -20.022  11.489  13.558  0.00  0.00    -0.650 OA
BRANCH  53  55
HETATM   55  O   UNK     0     -19.258  10.718  11.565  0.00  0.00    -0.776 OA
HETATM   56  H   UNK     0     -19.675   9.963  11.074  0.00  0.00     0.167 HD
ENDBRANCH  53  55
ENDBRANCH  52  53
ENDBRANCH  51  52
ENDBRANCH  18  51
TORSDOF 16
ENDMDL
MODEL 13
REMARK VINA RESULT:      -8.9     30.550     33.720
REMARK  16 active torsions:
REMARK  status: ('A' for Active; 'I' for Inactive)
REMARK    1  A    between atoms: C_6  and  C_7 
REMARK    2  A    between atoms: C_7  and  C_8 
REMARK    3  A    between atoms: C_8  and  C_9 
REMARK    4  A    between atoms: C_9  and  O_11 
REMARK    5  A    between atoms: C_16  and  C_17 
REMARK    6  A    between atoms: C_17  and  C_18 
REMARK    7  A    between atoms: C_18  and  C_19 
REMARK    8  A    between atoms: C_19  and  O_21 
REMARK    9  A    between atoms: C_28  and  C_29 
REMARK   10  A    between atoms: C_29  and  C_30 
REMARK   11  A    between atoms: C_30  and  C_31 
REMARK   12  A    between atoms: C_31  and  O_33 
REMARK   13  A    between atoms: C_42  and  C_43 
REMARK   14  A    between atoms: C_43  and  C_44 
REMARK   15  A    between atoms: C_44  and  C_45 
REMARK   16  A    between atoms: C_45  and  O_47 
ROOT
HETATM    1  C   UNK     0     -26.796  21.277   7.484  0.00  0.00     0.051 C 
HETATM    2  C   UNK     0     -25.898  20.398   8.330  0.00  0.00    -0.031 A 
HETATM    3  C   UNK     0     -26.208  19.250   9.041  0.00  0.00     0.021 A 
HETATM    4  N   UNK     0     -25.097  18.812   9.679  0.00  0.00    -0.361 N 
HETATM    5  C   UNK     0     -24.083  19.652   9.383  0.00  0.00     0.022 A 
HETATM    6  C   UNK     0     -24.550  20.657   8.543  0.00  0.00    -0.027 A 
HETATM    7  C   UNK     0     -22.636  19.565   9.755  0.00  0.00     0.115 C 
HETATM    8  C   UNK     0     -21.988  18.195   9.658  0.00  0.00     0.021 A 
HETATM    9  N   UNK     0     -22.217  17.223   8.761  0.00  0.00    -0.361 N 
HETATM   10  C   UNK     0     -21.484  16.146   9.113  0.00  0.00     0.022 A 
HETATM   11  C   UNK     0     -20.756  16.435  10.264  0.00  0.00    -0.027 A 
HETATM   12  C   UNK     0     -21.068  17.724  10.612  0.00  0.00    -0.031 A 
HETATM   13  C   UNK     0     -20.506  18.469  11.802  0.00  0.00     0.051 C 
HETATM   14  C   UNK     0     -21.481  14.790   8.414  0.00  0.00     0.115 C 
HETATM   15  C   UNK     0     -22.836  14.099   8.405  0.00  0.00     0.021 A 
HETATM   16  N   UNK     0     -23.990  14.561   7.890  0.00  0.00    -0.361 N 
HETATM   17  C   UNK     0     -24.966  13.687   8.147  0.00  0.00     0.022 A 
HETATM   18  C   UNK     0     -24.419  12.599   8.857  0.00  0.00    -0.027 A 
HETATM   19  C   UNK     0     -23.084  12.869   9.011  0.00  0.00    -0.031 A 
HETATM   20  C   UNK     0     -22.107  11.930   9.694  0.00  0.00     0.051 C 
HETATM   21  C   UNK     0     -26.446  13.767   7.849  0.00  0.00     0.115 C 
HETATM   22  C   UNK     0     -27.095  15.131   7.899  0.00  0.00     0.022 A 
HETATM   23  N   UNK     0     -26.883  16.119   8.778  0.00  0.00    -0.361 N 
HETATM   24  C   UNK     0     -27.562  17.207   8.363  0.00  0.00     0.021 A 
HETATM   25  C   UNK     0     -28.236  16.909   7.194  0.00  0.00    -0.031 A 
HETATM   26  C   UNK     0     -29.159  17.788   6.376  0.00  0.00     0.051 C 
HETATM   27  C   UNK     0     -27.953  15.586   6.877  0.00  0.00    -0.027 A 
HETATM   28  C   UNK     0     -27.559  18.596   8.980  0.00  0.00     0.115 C 
HETATM   29  H   UNK     0     -25.045  17.936  10.366  0.00  0.00     0.165 HD
HETATM   30  H   UNK     0     -22.857  17.312   7.849  0.00  0.00     0.165 HD
HETATM   31  H   UNK     0     -24.111  15.500   7.290  0.00  0.00     0.165 HD
HETATM   32  H   UNK     0     -26.286  16.044   9.724  0.00  0.00     0.165 HD
ENDROOT
BRANCH   6  33
HETATM   33  C   UNK     0     -23.823  21.831   7.938  0.00  0.00     0.051 C 
BRANCH  33  34
HETATM   34  C   UNK     0     -23.651  22.935   8.954  0.00  0.00     0.114 C 
BRANCH  34  35
HETATM   35  C   UNK     0     -22.275  23.485   8.786  0.00  0.00     0.139 C 
HETATM   36  O   UNK     0     -21.312  23.009   9.455  0.00  0.00    -0.650 OA
BRANCH  35  37
HETATM   37  O   UNK     0     -21.984  24.521   7.907  0.00  0.00    -0.776 OA
HETATM   38  H   UNK     0     -22.707  25.082   7.484  0.00  0.00     0.167 HD
ENDBRANCH  35  37
ENDBRANCH  34  35
ENDBRANCH  33  34
ENDBRANCH   6  33
BRANCH  27  39
HETATM   39  C   UNK     0     -28.560  14.883   5.715  0.00  0.00     0.051 C 
BRANCH  39  40
HETATM   40  C   UNK     0     -27.897  14.989   4.415  0.00  0.00     0.114 C 
BRANCH  40  41
HETATM   41  C   UNK     0     -26.473  15.201   4.292  0.00  0.00     0.139 C 
HETATM   42  O   UNK     0     -25.644  14.281   4.268  0.00  0.00    -0.650 OA
BRANCH  41  43
HETATM   43  O   UNK     0     -25.978  16.532   4.193  0.00  0.00    -0.776 OA
HETATM   44  H   UNK     0     -26.697  17.245   4.151  0.00  0.00     0.167 HD
ENDBRANCH  41  43
ENDBRANCH  40  41
ENDBRANCH  39  40
ENDBRANCH  27  39
BRANCH  11  45
HETATM   45  C   UNK     0     -19.799  15.552  11.019  0.00  0.00     0.051 C 
BRANCH  45  46
HETATM   46  C   UNK     0     -20.445  14.701  12.051  0.00  0.00     0.114 C 
BRANCH  46  47
HETATM   47  C   UNK     0     -19.710  13.404  12.077  0.00  0.00     0.139 C 
HETATM   48  O   UNK     0     -18.834  13.202  11.225  0.00  0.00    -0.650 OA
BRANCH  47  49
HETATM   49  O   UNK     0     -19.999  12.452  13.022  0.00  0.00    -0.776 OA
HETATM   50  H   UNK     0     -20.752  12.576  13.709  0.00  0.00     0.167 HD
ENDBRANCH  47  49
ENDBRANCH  46  47
ENDBRANCH  45  46
ENDBRANCH  11  45
BRANCH  18  51
HETATM   51  C   UNK     0     -25.127  11.361   9.342  0.00  0.00     0.051 C 
BRANCH  51  52
HETATM   52  C   UNK     0     -25.321  10.474   8.121  0.00  0.00     0.114 C 
BRANCH  52  53
HETATM   53  C   UNK     0     -26.624   9.782   8.146  0.00  0.00     0.139 C 
HETATM   54  O   UNK     0     -27.079   9.275   7.108  0.00  0.00    -0.650 OA
BRANCH  53  55
HETATM   55  O   UNK     0     -27.330   9.705   9.322  0.00  0.00    -0.776 OA
HETATM   56  H   UNK     0     -28.295   9.492   9.411  0.00  0.00     0.167 HD
ENDBRANCH  53  55
ENDBRANCH  52  53
ENDBRANCH  51  52
ENDBRANCH  18  51
TORSDOF 16
ENDMDL
MODEL 14
REMARK VINA RESULT:      -8.9     31.670     34.844
REMARK  16 active torsions:
REMARK  status: ('A' for Active; 'I' for Inactive)
REMARK    1  A    between atoms: C_6  and  C_7 
REMARK    2  A    between atoms: C_7  and  C_8 
REMARK    3  A    between atoms: C_8  and  C_9 
REMARK    4  A    between atoms: C_9  and  O_11 
REMARK    5  A    between atoms: C_16  and  C_17 
REMARK    6  A    between atoms: C_17  and  C_18 
REMARK    7  A    between atoms: C_18  and  C_19 
REMARK    8  A    between atoms: C_19  and  O_21 
REMARK    9  A    between atoms: C_28  and  C_29 
REMARK   10  A    between atoms: C_29  and  C_30 
REMARK   11  A    between atoms: C_30  and  C_31 
REMARK   12  A    between atoms: C_31  and  O_33 
REMARK   13  A    between atoms: C_42  and  C_43 
REMARK   14  A    between atoms: C_43  and  C_44 
REMARK   15  A    between atoms: C_44  and  C_45 
REMARK   16  A    between atoms: C_45  and  O_47 
ROOT
HETATM    1  C   UNK     0     -24.375  19.544  10.306  0.00  0.00     0.051 C 
HETATM    2  C   UNK     0     -24.807  18.104  10.113  0.00  0.00    -0.031 A 
HETATM    3  C   UNK     0     -26.077  17.585   9.918  0.00  0.00     0.021 A 
HETATM    4  N   UNK     0     -25.993  16.237   9.826  0.00  0.00    -0.361 N 
HETATM    5  C   UNK     0     -24.696  15.886   9.949  0.00  0.00     0.022 A 
HETATM    6  C   UNK     0     -23.927  17.030  10.134  0.00  0.00    -0.027 A 
HETATM    7  C   UNK     0     -24.059  14.537   9.828  0.00  0.00     0.115 C 
HETATM    8  C   UNK     0     -24.549  13.652   8.696  0.00  0.00     0.021 A 
HETATM    9  N   UNK     0     -24.937  14.010   7.462  0.00  0.00    -0.361 N 
HETATM   10  C   UNK     0     -25.381  12.905   6.825  0.00  0.00     0.022 A 
HETATM   11  C   UNK     0     -25.266  11.804   7.668  0.00  0.00    -0.027 A 
HETATM   12  C   UNK     0     -24.742  12.267   8.848  0.00  0.00    -0.031 A 
HETATM   13  C   UNK     0     -24.438  11.418  10.062  0.00  0.00     0.051 C 
HETATM   14  C   UNK     0     -25.977  12.853   5.421  0.00  0.00     0.115 C 
HETATM   15  C   UNK     0     -27.241  13.681   5.258  0.00  0.00     0.021 A 
HETATM   16  N   UNK     0     -27.389  15.004   5.463  0.00  0.00    -0.361 N 
HETATM   17  C   UNK     0     -28.669  15.335   5.281  0.00  0.00     0.022 A 
HETATM   18  C   UNK     0     -29.388  14.175   4.931  0.00  0.00    -0.027 A 
HETATM   19  C   UNK     0     -28.482  13.147   4.919  0.00  0.00    -0.031 A 
HETATM   20  C   UNK     0     -28.835  11.716   4.554  0.00  0.00     0.051 C 
HETATM   21  C   UNK     0     -29.362  16.667   5.457  0.00  0.00     0.115 C 
HETATM   22  C   UNK     0     -28.856  17.577   6.552  0.00  0.00     0.022 A 
HETATM   23  N   UNK     0     -28.459  17.248   7.788  0.00  0.00    -0.361 N 
HETATM   24  C   UNK     0     -27.949  18.349   8.376  0.00  0.00     0.021 A 
HETATM   25  C   UNK     0     -28.030  19.415   7.502  0.00  0.00    -0.031 A 
HETATM   26  C   UNK     0     -27.626  20.859   7.719  0.00  0.00     0.051 C 
HETATM   27  C   UNK     0     -28.607  18.946   6.327  0.00  0.00    -0.027 A 
HETATM   28  C   UNK     0     -27.291  18.453   9.741  0.00  0.00     0.115 C 
HETATM   29  H   UNK     0     -26.855  15.539   9.713  0.00  0.00     0.165 HD
HETATM   30  H   UNK     0     -24.853  15.033   7.020  0.00  0.00     0.165 HD
HETATM   31  H   UNK     0     -26.564  15.727   5.694  0.00  0.00     0.165 HD
HETATM   32  H   UNK     0     -28.574  16.244   8.272  0.00  0.00     0.165 HD
ENDROOT
BRANCH   6  33
HETATM   33  C   UNK     0     -22.439  17.178  10.327  0.00  0.00     0.051 C 
BRANCH  33  34
HETATM   34  C   UNK     0     -22.100  17.302  11.794  0.00  0.00     0.114 C 
BRANCH  34  35
HETATM   35  C   UNK     0     -21.128  16.219  12.121  0.00  0.00     0.139 C 
HETATM   36  O   UNK     0     -21.431  15.007  11.914  0.00  0.00    -0.650 OA
BRANCH  35  37
HETATM   37  O   UNK     0     -19.871  16.476  12.653  0.00  0.00    -0.776 OA
HETATM   38  H   UNK     0     -19.750  16.883  13.567  0.00  0.00     0.167 HD
ENDBRANCH  35  37
ENDBRANCH  34  35
ENDBRANCH  33  34
ENDBRANCH   6  33
BRANCH  27  39
HETATM   39  C   UNK     0     -28.923  19.828   5.171  0.00  0.00     0.051 C 
BRANCH  39  40
HETATM   40  C   UNK     0     -30.326  20.006   4.796  0.00  0.00     0.114 C 
BRANCH  40  41
HETATM   41  C   UNK     0     -30.844  19.565   3.520  0.00  0.00     0.139 C 
HETATM   42  O   UNK     0     -31.557  18.562   3.382  0.00  0.00    -0.650 OA
BRANCH  41  43
HETATM   43  O   UNK     0     -30.528  20.312   2.350  0.00  0.00    -0.776 OA
HETATM   44  H   UNK     0     -30.597  21.316   2.463  0.00  0.00     0.167 HD
ENDBRANCH  41  43
ENDBRANCH  40  41
ENDBRANCH  39  40
ENDBRANCH  27  39
BRANCH  11  45
HETATM   45  C   UNK     0     -25.624  10.368   7.395  0.00  0.00     0.051 C 
BRANCH  45  46
HETATM   46  C   UNK     0     -27.061  10.148   7.093  0.00  0.00     0.114 C 
BRANCH  46  47
HETATM   47  C   UNK     0     -27.824  10.435   8.342  0.00  0.00     0.139 C 
HETATM   48  O   UNK     0     -28.685  11.325   8.319  0.00  0.00    -0.650 OA
BRANCH  47  49
HETATM   49  O   UNK     0     -27.577   9.731   9.494  0.00  0.00    -0.776 OA
HETATM   50  H   UNK     0     -27.769  10.122  10.424  0.00  0.00     0.167 HD
ENDBRANCH  47  49
ENDBRANCH  46  47
ENDBRANCH  45  46
ENDBRANCH  11  45
BRANCH  18  51
HETATM   51  C   UNK     0     -30.854  14.058   4.605  0.00  0.00     0.051 C 
BRANCH  51  52
HETATM   52  C   UNK     0     -31.589  14.068   5.937  0.00  0.00     0.114 C 
BRANCH  52  53
HETATM   53  C   UNK     0     -31.925  12.704   6.390  0.00  0.00     0.139 C 
HETATM   54  O   UNK     0     -32.618  11.964   5.673  0.00  0.00    -0.650 OA
BRANCH  53  55
HETATM   55  O   UNK     0     -31.470  12.261   7.609  0.00  0.00    -0.776 OA
HETATM   56  H   UNK     0     -31.281  12.827   8.402  0.00  0.00     0.167 HD
ENDBRANCH  53  55
ENDBRANCH  52  53
ENDBRANCH  51  52
ENDBRANCH  18  51
TORSDOF 16
ENDMDL
MODEL 15
REMARK VINA RESULT:      -8.8     29.746     32.628
REMARK  16 active torsions:
REMARK  status: ('A' for Active; 'I' for Inactive)
REMARK    1  A    between atoms: C_6  and  C_7 
REMARK    2  A    between atoms: C_7  and  C_8 
REMARK    3  A    between atoms: C_8  and  C_9 
REMARK    4  A    between atoms: C_9  and  O_11 
REMARK    5  A    between atoms: C_16  and  C_17 
REMARK    6  A    between atoms: C_17  and  C_18 
REMARK    7  A    between atoms: C_18  and  C_19 
REMARK    8  A    between atoms: C_19  and  O_21 
REMARK    9  A    between atoms: C_28  and  C_29 
REMARK   10  A    between atoms: C_29  and  C_30 
REMARK   11  A    between atoms: C_30  and  C_31 
REMARK   12  A    between atoms: C_31  and  O_33 
REMARK   13  A    between atoms: C_42  and  C_43 
REMARK   14  A    between atoms: C_43  and  C_44 
REMARK   15  A    between atoms: C_44  and  C_45 
REMARK   16  A    between atoms: C_45  and  O_47 
ROOT
HETATM    1  C   UNK     0     -28.857  17.514   7.228  0.00  0.00     0.051 C 
HETATM    2  C   UNK     0     -28.107  16.233   6.920  0.00  0.00    -0.031 A 
HETATM    3  C   UNK     0     -26.742  15.999   6.892  0.00  0.00     0.021 A 
HETATM    4  N   UNK     0     -26.522  14.711   6.536  0.00  0.00    -0.361 N 
HETATM    5  C   UNK     0     -27.719  14.117   6.345  0.00  0.00     0.022 A 
HETATM    6  C   UNK     0     -28.732  15.042   6.573  0.00  0.00    -0.027 A 
HETATM    7  C   UNK     0     -28.033  12.687   6.034  0.00  0.00     0.115 C 
HETATM    8  C   UNK     0     -27.244  11.635   6.793  0.00  0.00     0.021 A 
HETATM    9  N   UNK     0     -26.811  11.670   8.063  0.00  0.00    -0.361 N 
HETATM   10  C   UNK     0     -26.074  10.561   8.285  0.00  0.00     0.022 A 
HETATM   11  C   UNK     0     -26.039   9.786   7.129  0.00  0.00    -0.027 A 
HETATM   12  C   UNK     0     -26.774  10.457   6.186  0.00  0.00    -0.031 A 
HETATM   13  C   UNK     0     -27.018   9.985   4.770  0.00  0.00     0.051 C 
HETATM   14  C   UNK     0     -25.332  10.215   9.572  0.00  0.00     0.115 C 
HETATM   15  C   UNK     0     -24.266  11.227   9.960  0.00  0.00     0.021 A 
HETATM   16  N   UNK     0     -24.430  12.542  10.200  0.00  0.00    -0.361 N 
HETATM   17  C   UNK     0     -23.239  13.095  10.441  0.00  0.00     0.022 A 
HETATM   18  C   UNK     0     -22.253  12.092  10.364  0.00  0.00    -0.027 A 
HETATM   19  C   UNK     0     -22.909  10.926  10.064  0.00  0.00    -0.031 A 
HETATM   20  C   UNK     0     -22.219   9.581   9.925  0.00  0.00     0.051 C 
HETATM   21  C   UNK     0     -22.873  14.540  10.692  0.00  0.00     0.115 C 
HETATM   22  C   UNK     0     -23.679  15.599   9.977  0.00  0.00     0.022 A 
HETATM   23  N   UNK     0     -24.127  15.589   8.715  0.00  0.00    -0.361 N 
HETATM   24  C   UNK     0     -24.923  16.664   8.540  0.00  0.00     0.021 A 
HETATM   25  C   UNK     0     -24.980  17.389   9.715  0.00  0.00    -0.031 A 
HETATM   26  C   UNK     0     -25.706  18.687  10.000  0.00  0.00     0.051 C 
HETATM   27  C   UNK     0     -24.191  16.727  10.649  0.00  0.00    -0.027 A 
HETATM   28  C   UNK     0     -25.731  17.031   7.307  0.00  0.00     0.115 C 
HETATM   29  H   UNK     0     -25.523  14.241   6.384  0.00  0.00     0.165 HD
HETATM   30  H   UNK     0     -27.065  12.451   8.820  0.00  0.00     0.165 HD
HETATM   31  H   UNK     0     -25.411  13.082  10.247  0.00  0.00     0.165 HD
HETATM   32  H   UNK     0     -23.851  14.847   7.922  0.00  0.00     0.165 HD
ENDROOT
BRANCH   6  33
HETATM   33  C   UNK     0     -30.229  14.883   6.486  0.00  0.00     0.051 C 
BRANCH  33  34
HETATM   34  C   UNK     0     -30.797  14.439   7.813  0.00  0.00     0.114 C 
BRANCH  34  35
HETATM   35  C   UNK     0     -31.198  13.010   7.671  0.00  0.00     0.139 C 
HETATM   36  O   UNK     0     -30.752  12.140   8.475  0.00  0.00    -0.650 OA
BRANCH  35  37
HETATM   37  O   UNK     0     -32.063  12.569   6.676  0.00  0.00    -0.776 OA
HETATM   38  H   UNK     0     -31.771  11.920   5.963  0.00  0.00     0.167 HD
ENDBRANCH  35  37
ENDBRANCH  34  35
ENDBRANCH  33  34
ENDBRANCH   6  33
BRANCH  27  39
HETATM   39  C   UNK     0     -23.950  17.250  12.021  0.00  0.00     0.051 C 
BRANCH  39  40
HETATM   40  C   UNK     0     -22.801  18.130  12.237  0.00  0.00     0.114 C 
BRANCH  40  41
HETATM   41  C   UNK     0     -22.866  19.282  13.107  0.00  0.00     0.139 C 
HETATM   42  O   UNK     0     -22.178  20.300  12.946  0.00  0.00    -0.650 OA
BRANCH  41  43
HETATM   43  O   UNK     0     -23.762  19.264  14.213  0.00  0.00    -0.776 OA
HETATM   44  H   UNK     0     -23.383  19.658  15.066  0.00  0.00     0.167 HD
ENDBRANCH  41  43
ENDBRANCH  40  41
ENDBRANCH  39  40
ENDBRANCH  27  39
BRANCH  11  45
HETATM   45  C   UNK     0     -25.352   8.467   6.900  0.00  0.00     0.051 C 
BRANCH  45  46
HETATM   46  C   UNK     0     -26.270   7.299   6.891  0.00  0.00     0.114 C 
BRANCH  46  47
HETATM   47  C   UNK     0     -26.166   6.666   5.546  0.00  0.00     0.139 C 
HETATM   48  O   UNK     0     -27.054   5.878   5.191  0.00  0.00    -0.650 OA
BRANCH  47  49
HETATM   49  O   UNK     0     -25.109   6.946   4.717  0.00  0.00    -0.776 OA
HETATM   50  H   UNK     0     -24.138   6.746   4.984  0.00  0.00     0.167 HD
ENDBRANCH  47  49
ENDBRANCH  46  47
ENDBRANCH  45  46
ENDBRANCH  11  45
BRANCH  18  51
HETATM   51  C   UNK     0     -20.770  12.232  10.586  0.00  0.00     0.051 C 
BRANCH  51  52
HETATM   52  C   UNK     0     -20.511  11.797  12.021  0.00  0.00     0.114 C 
BRANCH  52  53
HETATM   53  C   UNK     0     -19.319  10.934  12.127  0.00  0.00     0.139 C 
HETATM   54  O   UNK     0     -19.450   9.712  12.298  0.00  0.00    -0.650 OA
BRANCH  53  55
HETATM   55  O   UNK     0     -18.066  11.491  12.040  0.00  0.00    -0.776 OA
HETATM   56  H   UNK     0     -17.467  11.460  11.249  0.00  0.00     0.167 HD
ENDBRANCH  53  55
ENDBRANCH  52  53
ENDBRANCH  51  52
ENDBRANCH  18  51
TORSDOF 16
ENDMDL
MODEL 16
REMARK VINA RESULT:      -8.8     30.110     34.636
REMARK  16 active torsions:
REMARK  status: ('A' for Active; 'I' for Inactive)
REMARK    1  A    between atoms: C_6  and  C_7 
REMARK    2  A    between atoms: C_7  and  C_8 
REMARK    3  A    between atoms: C_8  and  C_9 
REMARK    4  A    between atoms: C_9  and  O_11 
REMARK    5  A    between atoms: C_16  and  C_17 
REMARK    6  A    between atoms: C_17  and  C_18 
REMARK    7  A    between atoms: C_18  and  C_19 
REMARK    8  A    between atoms: C_19  and  O_21 
REMARK    9  A    between atoms: C_28  and  C_29 
REMARK   10  A    between atoms: C_29  and  C_30 
REMARK   11  A    between atoms: C_30  and  C_31 
REMARK   12  A    between atoms: C_31  and  O_33 
REMARK   13  A    between atoms: C_42  and  C_43 
REMARK   14  A    between atoms: C_43  and  C_44 
REMARK   15  A    between atoms: C_44  and  C_45 
REMARK   16  A    between atoms: C_45  and  O_47 
ROOT
HETATM    1  C   UNK     0     -19.777  15.922  12.202  0.00  0.00     0.051 C 
HETATM    2  C   UNK     0     -20.685  16.578  11.181  0.00  0.00    -0.031 A 
HETATM    3  C   UNK     0     -21.103  16.109   9.946  0.00  0.00     0.021 A 
HETATM    4  N   UNK     0     -21.886  17.046   9.360  0.00  0.00    -0.361 N 
HETATM    5  C   UNK     0     -21.983  18.098  10.199  0.00  0.00     0.022 A 
HETATM    6  C   UNK     0     -21.241  17.840  11.347  0.00  0.00    -0.027 A 
HETATM    7  C   UNK     0     -22.800  19.346  10.071  0.00  0.00     0.115 C 
HETATM    8  C   UNK     0     -24.220  19.181   9.559  0.00  0.00     0.021 A 
HETATM    9  N   UNK     0     -25.080  18.176   9.787  0.00  0.00    -0.361 N 
HETATM   10  C   UNK     0     -26.193  18.403   9.057  0.00  0.00     0.022 A 
HETATM   11  C   UNK     0     -26.049  19.591   8.346  0.00  0.00    -0.027 A 
HETATM   12  C   UNK     0     -24.809  20.086   8.658  0.00  0.00    -0.031 A 
HETATM   13  C   UNK     0     -24.221  21.371   8.120  0.00  0.00     0.051 C 
HETATM   14  C   UNK     0     -27.409  17.486   8.959  0.00  0.00     0.115 C 
HETATM   15  C   UNK     0     -27.096  16.107   8.400  0.00  0.00     0.021 A 
HETATM   16  N   UNK     0     -26.230  15.199   8.887  0.00  0.00    -0.361 N 
HETATM   17  C   UNK     0     -26.193  14.145   8.070  0.00  0.00     0.022 A 
HETATM   18  C   UNK     0     -27.085  14.372   7.003  0.00  0.00    -0.027 A 
HETATM   19  C   UNK     0     -27.646  15.604   7.222  0.00  0.00    -0.031 A 
HETATM   20  C   UNK     0     -28.698  16.225   6.321  0.00  0.00     0.051 C 
HETATM   21  C   UNK     0     -25.337  12.900   8.128  0.00  0.00     0.115 C 
HETATM   22  C   UNK     0     -23.937  13.041   8.676  0.00  0.00     0.022 A 
HETATM   23  N   UNK     0     -23.060  14.032   8.469  0.00  0.00    -0.361 N 
HETATM   24  C   UNK     0     -21.992  13.826   9.265  0.00  0.00     0.021 A 
HETATM   25  C   UNK     0     -22.181  12.668   9.996  0.00  0.00    -0.031 A 
HETATM   26  C   UNK     0     -21.249  12.005  10.988  0.00  0.00     0.051 C 
HETATM   27  C   UNK     0     -23.419  12.148   9.636  0.00  0.00    -0.027 A 
HETATM   28  C   UNK     0     -20.783  14.727   9.451  0.00  0.00     0.115 C 
HETATM   29  H   UNK     0     -22.333  16.974   8.341  0.00  0.00     0.165 HD
HETATM   30  H   UNK     0     -24.925  17.331  10.502  0.00  0.00     0.165 HD
HETATM   31  H   UNK     0     -25.668  15.283   9.854  0.00  0.00     0.165 HD
HETATM   32  H   UNK     0     -23.169  14.864   7.726  0.00  0.00     0.165 HD
ENDROOT
BRANCH   6  33
HETATM   33  C   UNK     0     -21.022  18.691  12.572  0.00  0.00     0.051 C 
BRANCH  33  34
HETATM   34  C   UNK     0     -21.949  19.883  12.569  0.00  0.00     0.114 C 
BRANCH  34  35
HETATM   35  C   UNK     0     -22.879  19.729  13.724  0.00  0.00     0.139 C 
HETATM   36  O   UNK     0     -23.438  18.615  13.948  0.00  0.00    -0.650 OA
BRANCH  35  37
HETATM   37  O   UNK     0     -23.173  20.772  14.594  0.00  0.00    -0.776 OA
HETATM   38  H   UNK     0     -24.023  20.794  15.134  0.00  0.00     0.167 HD
ENDBRANCH  35  37
ENDBRANCH  34  35
ENDBRANCH  33  34
ENDBRANCH   6  33
BRANCH  27  39
HETATM   39  C   UNK     0     -23.940  10.858  10.165  0.00  0.00     0.051 C 
BRANCH  39  40
HETATM   40  C   UNK     0     -23.828   9.667   9.324  0.00  0.00     0.114 C 
BRANCH  40  41
HETATM   41  C   UNK     0     -22.811   8.662   9.544  0.00  0.00     0.139 C 
HETATM   42  O   UNK     0     -21.615   8.829   9.270  0.00  0.00    -0.650 OA
BRANCH  41  43
HETATM   43  O   UNK     0     -23.188   7.409  10.104  0.00  0.00    -0.776 OA
HETATM   44  H   UNK     0     -23.823   6.867   9.530  0.00  0.00     0.167 HD
ENDBRANCH  41  43
ENDBRANCH  40  41
ENDBRANCH  39  40
ENDBRANCH  27  39
BRANCH  11  45
HETATM   45  C   UNK     0     -27.025  20.252   7.411  0.00  0.00     0.051 C 
BRANCH  45  46
HETATM   46  C   UNK     0     -27.829  21.332   8.038  0.00  0.00     0.114 C 
BRANCH  46  47
HETATM   47  C   UNK     0     -27.642  22.558   7.210  0.00  0.00     0.139 C 
HETATM   48  O   UNK     0     -27.158  23.566   7.745  0.00  0.00    -0.650 OA
BRANCH  47  49
HETATM   49  O   UNK     0     -28.000  22.574   5.886  0.00  0.00    -0.776 OA
HETATM   50  H   UNK     0     -27.402  22.995   5.165  0.00  0.00     0.167 HD
ENDBRANCH  47  49
ENDBRANCH  46  47
ENDBRANCH  45  46
ENDBRANCH  11  45
BRANCH  18  51
HETATM   51  C   UNK     0     -27.402  13.456   5.849  0.00  0.00     0.051 C 
BRANCH  51  52
HETATM   52  C   UNK     0     -28.566  12.588   6.302  0.00  0.00     0.114 C 
BRANCH  52  53
HETATM   53  C   UNK     0     -28.375  11.173   5.927  0.00  0.00     0.139 C 
HETATM   54  O   UNK     0     -28.784  10.271   6.676  0.00  0.00    -0.650 OA
BRANCH  53  55
HETATM   55  O   UNK     0     -27.741  10.862   4.749  0.00  0.00    -0.776 OA
HETATM   56  H   UNK     0     -27.547   9.948   4.414  0.00  0.00     0.167 HD
ENDBRANCH  53  55
ENDBRANCH  52  53
ENDBRANCH  51  52
ENDBRANCH  18  51
TORSDOF 16
ENDMDL
MODEL 17
REMARK VINA RESULT:      -8.8     30.447     33.922
REMARK  16 active torsions:
REMARK  status: ('A' for Active; 'I' for Inactive)
REMARK    1  A    between atoms: C_6  and  C_7 
REMARK    2  A    between atoms: C_7  and  C_8 
REMARK    3  A    between atoms: C_8  and  C_9 
REMARK    4  A    between atoms: C_9  and  O_11 
REMARK    5  A    between atoms: C_16  and  C_17 
REMARK    6  A    between atoms: C_17  and  C_18 
REMARK    7  A    between atoms: C_18  and  C_19 
REMARK    8  A    between atoms: C_19  and  O_21 
REMARK    9  A    between atoms: C_28  and  C_29 
REMARK   10  A    between atoms: C_29  and  C_30 
REMARK   11  A    between atoms: C_30  and  C_31 
REMARK   12  A    between atoms: C_31  and  O_33 
REMARK   13  A    between atoms: C_42  and  C_43 
REMARK   14  A    between atoms: C_43  and  C_44 
REMARK   15  A    between atoms: C_44  and  C_45 
REMARK   16  A    between atoms: C_45  and  O_47 
ROOT
HETATM    1  C   UNK     0     -27.780  13.110   6.649  0.00  0.00     0.051 C 
HETATM    2  C   UNK     0     -26.387  13.395   7.172  0.00  0.00    -0.031 A 
HETATM    3  C   UNK     0     -25.542  14.457   6.889  0.00  0.00     0.021 A 
HETATM    4  N   UNK     0     -24.378  14.286   7.561  0.00  0.00    -0.361 N 
HETATM    5  C   UNK     0     -24.467  13.143   8.272  0.00  0.00     0.022 A 
HETATM    6  C   UNK     0     -25.709  12.559   8.050  0.00  0.00    -0.027 A 
HETATM    7  C   UNK     0     -23.497  12.551   9.247  0.00  0.00     0.115 C 
HETATM    8  C   UNK     0     -22.836  13.511  10.219  0.00  0.00     0.021 A 
HETATM    9  N   UNK     0     -23.359  14.600  10.804  0.00  0.00    -0.361 N 
HETATM   10  C   UNK     0     -22.383  15.202  11.518  0.00  0.00     0.022 A 
HETATM   11  C   UNK     0     -21.202  14.475  11.397  0.00  0.00    -0.027 A 
HETATM   12  C   UNK     0     -21.481  13.409  10.580  0.00  0.00    -0.031 A 
HETATM   13  C   UNK     0     -20.492  12.340  10.170  0.00  0.00     0.051 C 
HETATM   14  C   UNK     0     -22.510  16.508  12.296  0.00  0.00     0.115 C 
HETATM   15  C   UNK     0     -22.875  17.706  11.433  0.00  0.00     0.021 A 
HETATM   16  N   UNK     0     -23.963  17.857  10.655  0.00  0.00    -0.361 N 
HETATM   17  C   UNK     0     -23.879  19.019  10.004  0.00  0.00     0.022 A 
HETATM   18  C   UNK     0     -22.683  19.661  10.384  0.00  0.00    -0.027 A 
HETATM   19  C   UNK     0     -22.064  18.828  11.279  0.00  0.00    -0.031 A 
HETATM   20  C   UNK     0     -20.752  19.156  11.969  0.00  0.00     0.051 C 
HETATM   21  C   UNK     0     -24.799  19.621   8.966  0.00  0.00     0.115 C 
HETATM   22  C   UNK     0     -25.498  18.673   8.020  0.00  0.00     0.022 A 
HETATM   23  N   UNK     0     -25.003  17.579   7.426  0.00  0.00    -0.361 N 
HETATM   24  C   UNK     0     -26.011  16.954   6.785  0.00  0.00     0.021 A 
HETATM   25  C   UNK     0     -27.181  17.668   6.962  0.00  0.00    -0.031 A 
HETATM   26  C   UNK     0     -28.561  17.389   6.404  0.00  0.00     0.051 C 
HETATM   27  C   UNK     0     -26.877  18.773   7.749  0.00  0.00    -0.027 A 
HETATM   28  C   UNK     0     -25.961  15.628   6.046  0.00  0.00     0.115 C 
HETATM   29  H   UNK     0     -23.488  14.953   7.496  0.00  0.00     0.165 HD
HETATM   30  H   UNK     0     -24.429  14.920  10.756  0.00  0.00     0.165 HD
HETATM   31  H   UNK     0     -24.832  17.151  10.600  0.00  0.00     0.165 HD
HETATM   32  H   UNK     0     -23.928  17.261   7.418  0.00  0.00     0.165 HD
ENDROOT
BRANCH   6  33
HETATM   33  C   UNK     0     -26.293  11.282   8.599  0.00  0.00     0.051 C 
BRANCH  33  34
HETATM   34  C   UNK     0     -25.941  10.109   7.714  0.00  0.00     0.114 C 
BRANCH  34  35
HETATM   35  C   UNK     0     -27.209   9.390   7.400  0.00  0.00     0.139 C 
HETATM   36  O   UNK     0     -27.911   9.740   6.407  0.00  0.00    -0.650 OA
BRANCH  35  37
HETATM   37  O   UNK     0     -27.674   8.324   8.160  0.00  0.00    -0.776 OA
HETATM   38  H   UNK     0     -28.496   8.397   8.739  0.00  0.00     0.167 HD
ENDBRANCH  35  37
ENDBRANCH  34  35
ENDBRANCH  33  34
ENDBRANCH   6  33
BRANCH  27  39
HETATM   39  C   UNK     0     -27.876  19.820   8.095  0.00  0.00     0.051 C 
BRANCH  39  40
HETATM   40  C   UNK     0     -28.684  19.636   9.301  0.00  0.00     0.114 C 
BRANCH  40  41
HETATM   41  C   UNK     0     -28.110  19.205  10.555  0.00  0.00     0.139 C 
HETATM   42  O   UNK     0     -27.300  19.881  11.204  0.00  0.00    -0.650 OA
BRANCH  41  43
HETATM   43  O   UNK     0     -28.484  17.939  11.088  0.00  0.00    -0.776 OA
HETATM   44  H   UNK     0     -28.672  17.941  12.083  0.00  0.00     0.167 HD
ENDBRANCH  41  43
ENDBRANCH  40  41
ENDBRANCH  39  40
ENDBRANCH  27  39
BRANCH  11  45
HETATM   45  C   UNK     0     -19.859  14.751  12.016  0.00  0.00     0.051 C 
BRANCH  45  46
HETATM   46  C   UNK     0     -18.845  15.265  11.059  0.00  0.00     0.114 C 
BRANCH  46  47
HETATM   47  C   UNK     0     -18.394  16.593  11.565  0.00  0.00     0.139 C 
HETATM   48  O   UNK     0     -18.271  17.524  10.757  0.00  0.00    -0.650 OA
BRANCH  47  49
HETATM   49  O   UNK     0     -18.119  16.782  12.896  0.00  0.00    -0.776 OA
HETATM   50  H   UNK     0     -18.697  17.385  13.492  0.00  0.00     0.167 HD
ENDBRANCH  47  49
ENDBRANCH  46  47
ENDBRANCH  45  46
ENDBRANCH  11  45
BRANCH  18  51
HETATM   51  C   UNK     0     -22.169  21.003   9.933  0.00  0.00     0.051 C 
BRANCH  51  52
HETATM   52  C   UNK     0     -22.947  22.045  10.723  0.00  0.00     0.114 C 
BRANCH  52  53
HETATM   53  C   UNK     0     -22.187  22.530  11.890  0.00  0.00     0.139 C 
HETATM   54  O   UNK     0     -21.220  23.292  11.730  0.00  0.00    -0.650 OA
BRANCH  53  55
HETATM   55  O   UNK     0     -22.554  22.133  13.153  0.00  0.00    -0.776 OA
HETATM   56  H   UNK     0     -23.482  22.067  13.498  0.00  0.00     0.167 HD
ENDBRANCH  53  55
ENDBRANCH  52  53
ENDBRANCH  51  52
ENDBRANCH  18  51
TORSDOF 16
ENDMDL
MODEL 18
REMARK VINA RESULT:      -8.7      3.039      7.645
REMARK  16 active torsions:
REMARK  status: ('A' for Active; 'I' for Inactive)
REMARK    1  A    between atoms: C_6  and  C_7 
REMARK    2  A    between atoms: C_7  and  C_8 
REMARK    3  A    between atoms: C_8  and  C_9 
REMARK    4  A    between atoms: C_9  and  O_11 
REMARK    5  A    between atoms: C_16  and  C_17 
REMARK    6  A    between atoms: C_17  and  C_18 
REMARK    7  A    between atoms: C_18  and  C_19 
REMARK    8  A    between atoms: C_19  and  O_21 
REMARK    9  A    between atoms: C_28  and  C_29 
REMARK   10  A    between atoms: C_29  and  C_30 
REMARK   11  A    between atoms: C_30  and  C_31 
REMARK   12  A    between atoms: C_31  and  O_33 
REMARK   13  A    between atoms: C_42  and  C_43 
REMARK   14  A    between atoms: C_43  and  C_44 
REMARK   15  A    between atoms: C_44  and  C_45 
REMARK   16  A    between atoms: C_45  and  O_47 
ROOT
HETATM    1  C   UNK     0      -2.366  -1.833 -11.936  0.00  0.00     0.051 C 
HETATM    2  C   UNK     0      -2.873  -0.431 -11.665  0.00  0.00    -0.031 A 
HETATM    3  C   UNK     0      -2.971   0.252 -10.463  0.00  0.00     0.021 A 
HETATM    4  N   UNK     0      -3.512   1.472 -10.691  0.00  0.00    -0.361 N 
HETATM    5  C   UNK     0      -3.753   1.585 -12.014  0.00  0.00     0.022 A 
HETATM    6  C   UNK     0      -3.367   0.411 -12.652  0.00  0.00    -0.027 A 
HETATM    7  C   UNK     0      -4.254   2.760 -12.793  0.00  0.00     0.115 C 
HETATM    8  C   UNK     0      -3.673   4.116 -12.431  0.00  0.00     0.021 A 
HETATM    9  N   UNK     0      -2.424   4.414 -12.042  0.00  0.00    -0.361 N 
HETATM   10  C   UNK     0      -2.382   5.728 -11.736  0.00  0.00     0.022 A 
HETATM   11  C   UNK     0      -3.636   6.294 -11.943  0.00  0.00    -0.027 A 
HETATM   12  C   UNK     0      -4.455   5.284 -12.381  0.00  0.00    -0.031 A 
HETATM   13  C   UNK     0      -5.916   5.437 -12.740  0.00  0.00     0.051 C 
HETATM   14  C   UNK     0      -1.177   6.487 -11.188  0.00  0.00     0.115 C 
HETATM   15  C   UNK     0      -0.680   5.969  -9.848  0.00  0.00     0.021 A 
HETATM   16  N   UNK     0      -0.252   4.726  -9.556  0.00  0.00    -0.361 N 
HETATM   17  C   UNK     0       0.032   4.655  -8.254  0.00  0.00     0.022 A 
HETATM   18  C   UNK     0      -0.213   5.915  -7.671  0.00  0.00    -0.027 A 
HETATM   19  C   UNK     0      -0.657   6.729  -8.681  0.00  0.00    -0.031 A 
HETATM   20  C   UNK     0      -1.005   8.194  -8.492  0.00  0.00     0.051 C 
HETATM   21  C   UNK     0       0.476   3.475  -7.419  0.00  0.00     0.115 C 
HETATM   22  C   UNK     0      -0.060   2.114  -7.795  0.00  0.00     0.022 A 
HETATM   23  N   UNK     0      -1.298   1.789  -8.190  0.00  0.00    -0.361 N 
HETATM   24  C   UNK     0      -1.297   0.494  -8.564  0.00  0.00     0.021 A 
HETATM   25  C   UNK     0      -0.030  -0.031  -8.396  0.00  0.00    -0.031 A 
HETATM   26  C   UNK     0       0.456  -1.445  -8.638  0.00  0.00     0.051 C 
HETATM   27  C   UNK     0       0.779   0.987  -7.904  0.00  0.00    -0.027 A 
HETATM   28  C   UNK     0      -2.442  -0.300  -9.169  0.00  0.00     0.115 C 
HETATM   29  H   UNK     0      -3.756   2.230  -9.911  0.00  0.00     0.165 HD
HETATM   30  H   UNK     0      -1.557   3.709 -12.030  0.00  0.00     0.165 HD
HETATM   31  H   UNK     0      -0.102   3.894 -10.293  0.00  0.00     0.165 HD
HETATM   32  H   UNK     0      -2.195   2.461  -8.168  0.00  0.00     0.165 HD
ENDROOT
BRANCH   6  33
HETATM   33  C   UNK     0      -3.434   0.033 -14.110  0.00  0.00     0.051 C 
BRANCH  33  34
HETATM   34  C   UNK     0      -2.931   1.161 -14.980  0.00  0.00     0.114 C 
BRANCH  34  35
HETATM   35  C   UNK     0      -1.456   1.253 -14.782  0.00  0.00     0.139 C 
HETATM   36  O   UNK     0      -0.977   2.039 -13.914  0.00  0.00    -0.650 OA
BRANCH  35  37
HETATM   37  O   UNK     0      -0.553   0.498 -15.520  0.00  0.00    -0.776 OA
HETATM   38  H   UNK     0      -0.840  -0.306 -16.056  0.00  0.00     0.167 HD
ENDBRANCH  35  37
ENDBRANCH  34  35
ENDBRANCH  33  34
ENDBRANCH   6  33
BRANCH  27  39
HETATM   39  C   UNK     0       2.205   0.780  -7.529  0.00  0.00     0.051 C 
BRANCH  39  40
HETATM   40  C   UNK     0       3.202   1.713  -8.051  0.00  0.00     0.114 C 
BRANCH  40  41
HETATM   41  C   UNK     0       4.479   1.917  -7.405  0.00  0.00     0.139 C 
HETATM   42  O   UNK     0       4.657   2.725  -6.483  0.00  0.00    -0.650 OA
BRANCH  41  43
HETATM   43  O   UNK     0       5.602   1.158  -7.840  0.00  0.00    -0.776 OA
HETATM   44  H   UNK     0       5.467   0.676  -8.720  0.00  0.00     0.167 HD
ENDBRANCH  41  43
ENDBRANCH  40  41
ENDBRANCH  39  40
ENDBRANCH  27  39
BRANCH  11  45
HETATM   45  C   UNK     0      -4.069   7.722 -11.747  0.00  0.00     0.051 C 
BRANCH  45  46
HETATM   46  C   UNK     0      -3.851   8.238 -10.371  0.00  0.00     0.114 C 
BRANCH  46  47
HETATM   47  C   UNK     0      -3.584   9.700 -10.484  0.00  0.00     0.139 C 
HETATM   48  O   UNK     0      -2.800  10.093 -11.358  0.00  0.00    -0.650 OA
BRANCH  47  49
HETATM   49  O   UNK     0      -4.193  10.593  -9.638  0.00  0.00    -0.776 OA
HETATM   50  H   UNK     0      -4.190  10.467  -8.619  0.00  0.00     0.167 HD
ENDBRANCH  47  49
ENDBRANCH  46  47
ENDBRANCH  45  46
ENDBRANCH  11  45
BRANCH  18  51
HETATM   51  C   UNK     0      -0.014   6.325  -6.235  0.00  0.00     0.051 C 
BRANCH  51  52
HETATM   52  C   UNK     0       0.372   7.797  -6.263  0.00  0.00     0.114 C 
BRANCH  52  53
HETATM   53  C   UNK     0       1.766   8.007  -5.826  0.00  0.00     0.139 C 
HETATM   54  O   UNK     0       2.108   9.097  -5.343  0.00  0.00    -0.650 OA
BRANCH  53  55
HETATM   55  O   UNK     0       2.681   6.991  -5.962  0.00  0.00    -0.776 OA
HETATM   56  H   UNK     0       3.390   6.931  -6.655  0.00  0.00     0.167 HD
ENDBRANCH  53  55
ENDBRANCH  52  53
ENDBRANCH  51  52
ENDBRANCH  18  51
TORSDOF 16
ENDMDL
MODEL 19
REMARK VINA RESULT:      -8.6     30.681     34.369
REMARK  16 active torsions:
REMARK  status: ('A' for Active; 'I' for Inactive)
REMARK    1  A    between atoms: C_6  and  C_7 
REMARK    2  A    between atoms: C_7  and  C_8 
REMARK    3  A    between atoms: C_8  and  C_9 
REMARK    4  A    between atoms: C_9  and  O_11 
REMARK    5  A    between atoms: C_16  and  C_17 
REMARK    6  A    between atoms: C_17  and  C_18 
REMARK    7  A    between atoms: C_18  and  C_19 
REMARK    8  A    between atoms: C_19  and  O_21 
REMARK    9  A    between atoms: C_28  and  C_29 
REMARK   10  A    between atoms: C_29  and  C_30 
REMARK   11  A    between atoms: C_30  and  C_31 
REMARK   12  A    between atoms: C_31  and  O_33 
REMARK   13  A    between atoms: C_42  and  C_43 
REMARK   14  A    between atoms: C_43  and  C_44 
REMARK   15  A    between atoms: C_44  and  C_45 
REMARK   16  A    between atoms: C_45  and  O_47 
ROOT
HETATM    1  C   UNK     0     -30.980  15.443   3.524  0.00  0.00     0.051 C 
HETATM    2  C   UNK     0     -30.324  15.934   4.799  0.00  0.00    -0.031 A 
HETATM    3  C   UNK     0     -30.010  15.233   5.953  0.00  0.00     0.021 A 
HETATM    4  N   UNK     0     -29.460  16.085   6.851  0.00  0.00    -0.361 N 
HETATM    5  C   UNK     0     -29.409  17.311   6.291  0.00  0.00     0.022 A 
HETATM    6  C   UNK     0     -29.944  17.253   5.008  0.00  0.00    -0.027 A 
HETATM    7  C   UNK     0     -28.811  18.576   6.823  0.00  0.00     0.115 C 
HETATM    8  C   UNK     0     -27.464  18.455   7.513  0.00  0.00     0.021 A 
HETATM    9  N   UNK     0     -26.442  17.638   7.215  0.00  0.00    -0.361 N 
HETATM   10  C   UNK     0     -25.483  17.808   8.150  0.00  0.00     0.022 A 
HETATM   11  C   UNK     0     -25.895  18.767   9.070  0.00  0.00    -0.027 A 
HETATM   12  C   UNK     0     -27.142  19.179   8.675  0.00  0.00    -0.031 A 
HETATM   13  C   UNK     0     -27.981  20.222   9.378  0.00  0.00     0.051 C 
HETATM   14  C   UNK     0     -24.169  17.038   8.243  0.00  0.00     0.115 C 
HETATM   15  C   UNK     0     -24.345  15.539   8.427  0.00  0.00     0.021 A 
HETATM   16  N   UNK     0     -24.994  14.683   7.616  0.00  0.00    -0.361 N 
HETATM   17  C   UNK     0     -24.983  13.466   8.165  0.00  0.00     0.022 A 
HETATM   18  C   UNK     0     -24.286  13.530   9.387  0.00  0.00    -0.027 A 
HETATM   19  C   UNK     0     -23.890  14.834   9.539  0.00  0.00    -0.031 A 
HETATM   20  C   UNK     0     -23.072  15.336  10.715  0.00  0.00     0.051 C 
HETATM   21  C   UNK     0     -25.629  12.182   7.695  0.00  0.00     0.115 C 
HETATM   22  C   UNK     0     -26.949  12.291   6.967  0.00  0.00     0.022 A 
HETATM   23  N   UNK     0     -27.982  13.098   7.240  0.00  0.00    -0.361 N 
HETATM   24  C   UNK     0     -28.892  12.969   6.253  0.00  0.00     0.021 A 
HETATM   25  C   UNK     0     -28.437  12.049   5.328  0.00  0.00    -0.031 A 
HETATM   26  C   UNK     0     -29.119  11.541   4.074  0.00  0.00     0.051 C 
HETATM   27  C   UNK     0     -27.196  11.601   5.763  0.00  0.00    -0.027 A 
HETATM   28  C   UNK     0     -30.185  13.745   6.073  0.00  0.00     0.115 C 
HETATM   29  H   UNK     0     -29.149  15.822   7.888  0.00  0.00     0.165 HD
HETATM   30  H   UNK     0     -26.373  16.977   6.316  0.00  0.00     0.165 HD
HETATM   31  H   UNK     0     -25.427  14.931   6.612  0.00  0.00     0.165 HD
HETATM   32  H   UNK     0     -28.099  13.735   8.155  0.00  0.00     0.165 HD
ENDROOT
BRANCH   6  33
HETATM   33  C   UNK     0     -30.121  18.342   3.981  0.00  0.00     0.051 C 
BRANCH  33  34
HETATM   34  C   UNK     0     -28.894  18.459   3.108  0.00  0.00     0.114 C 
BRANCH  34  35
HETATM   35  C   UNK     0     -28.594  19.911   2.952  0.00  0.00     0.139 C 
HETATM   36  O   UNK     0     -28.400  20.402   1.802  0.00  0.00    -0.650 OA
BRANCH  35  37
HETATM   37  O   UNK     0     -28.515  20.780   4.033  0.00  0.00    -0.776 OA
HETATM   38  H   UNK     0     -28.542  20.453   4.985  0.00  0.00     0.167 HD
ENDBRANCH  35  37
ENDBRANCH  34  35
ENDBRANCH  33  34
ENDBRANCH   6  33
BRANCH  27  39
HETATM   39  C   UNK     0     -26.422  10.543   5.058  0.00  0.00     0.051 C 
BRANCH  39  40
HETATM   40  C   UNK     0     -26.608   9.153   5.473  0.00  0.00     0.114 C 
BRANCH  40  41
HETATM   41  C   UNK     0     -26.274   8.695   6.803  0.00  0.00     0.139 C 
HETATM   42  O   UNK     0     -25.119   8.674   7.248  0.00  0.00    -0.650 OA
BRANCH  41  43
HETATM   43  O   UNK     0     -27.317   8.239   7.659  0.00  0.00    -0.776 OA
HETATM   44  H   UNK     0     -27.171   7.312   8.040  0.00  0.00     0.167 HD
ENDBRANCH  41  43
ENDBRANCH  40  41
ENDBRANCH  39  40
ENDBRANCH  27  39
BRANCH  11  45
HETATM   45  C   UNK     0     -25.162  19.291  10.276  0.00  0.00     0.051 C 
BRANCH  45  46
HETATM   46  C   UNK     0     -25.108  18.338  11.414  0.00  0.00     0.114 C 
BRANCH  46  47
HETATM   47  C   UNK     0     -26.352  18.533  12.212  0.00  0.00     0.139 C 
HETATM   48  O   UNK     0     -27.118  17.570  12.360  0.00  0.00    -0.650 OA
BRANCH  47  49
HETATM   49  O   UNK     0     -26.644  19.751  12.772  0.00  0.00    -0.776 OA
HETATM   50  H   UNK     0     -27.540  19.936  13.238  0.00  0.00     0.167 HD
ENDBRANCH  47  49
ENDBRANCH  46  47
ENDBRANCH  45  46
ENDBRANCH  11  45
BRANCH  18  51
HETATM   51  C   UNK     0     -23.994  12.407  10.348  0.00  0.00     0.051 C 
BRANCH  51  52
HETATM   52  C   UNK     0     -22.835  11.624   9.748  0.00  0.00     0.114 C 
BRANCH  52  53
HETATM   53  C   UNK     0     -23.137  10.183   9.650  0.00  0.00     0.139 C 
HETATM   54  O   UNK     0     -22.255   9.386   9.293  0.00  0.00    -0.650 OA
BRANCH  53  55
HETATM   55  O   UNK     0     -24.398   9.731   9.953  0.00  0.00    -0.776 OA
HETATM   56  H   UNK     0     -24.721   8.797   9.864  0.00  0.00     0.167 HD
ENDBRANCH  53  55
ENDBRANCH  52  53
ENDBRANCH  51  52
ENDBRANCH  18  51
TORSDOF 16
ENDMDL
MODEL 20
REMARK VINA RESULT:      -8.6     29.500     32.966
REMARK  16 active torsions:
REMARK  status: ('A' for Active; 'I' for Inactive)
REMARK    1  A    between atoms: C_6  and  C_7 
REMARK    2  A    between atoms: C_7  and  C_8 
REMARK    3  A    between atoms: C_8  and  C_9 
REMARK    4  A    between atoms: C_9  and  O_11 
REMARK    5  A    between atoms: C_16  and  C_17 
REMARK    6  A    between atoms: C_17  and  C_18 
REMARK    7  A    between atoms: C_18  and  C_19 
REMARK    8  A    between atoms: C_19  and  O_21 
REMARK    9  A    between atoms: C_28  and  C_29 
REMARK   10  A    between atoms: C_29  and  C_30 
REMARK   11  A    between atoms: C_30  and  C_31 
REMARK   12  A    between atoms: C_31  and  O_33 
REMARK   13  A    between atoms: C_42  and  C_43 
REMARK   14  A    between atoms: C_43  and  C_44 
REMARK   15  A    between atoms: C_44  and  C_45 
REMARK   16  A    between atoms: C_45  and  O_47 
ROOT
HETATM    1  C   UNK     0     -23.900   8.626   8.887  0.00  0.00     0.051 C 
HETATM    2  C   UNK     0     -24.496  10.020   8.877  0.00  0.00    -0.031 A 
HETATM    3  C   UNK     0     -24.416  11.017   9.836  0.00  0.00     0.021 A 
HETATM    4  N   UNK     0     -25.129  12.090   9.417  0.00  0.00    -0.361 N 
HETATM    5  C   UNK     0     -25.654  11.800   8.208  0.00  0.00     0.022 A 
HETATM    6  C   UNK     0     -25.280  10.512   7.842  0.00  0.00    -0.027 A 
HETATM    7  C   UNK     0     -26.440  12.671   7.279  0.00  0.00     0.115 C 
HETATM    8  C   UNK     0     -25.956  14.100   7.110  0.00  0.00     0.021 A 
HETATM    9  N   UNK     0     -24.695  14.560   7.099  0.00  0.00    -0.361 N 
HETATM   10  C   UNK     0     -24.740  15.906   7.017  0.00  0.00     0.022 A 
HETATM   11  C   UNK     0     -26.066  16.325   6.963  0.00  0.00    -0.027 A 
HETATM   12  C   UNK     0     -26.837  15.192   7.022  0.00  0.00    -0.031 A 
HETATM   13  C   UNK     0     -28.349  15.161   6.989  0.00  0.00     0.051 C 
HETATM   14  C   UNK     0     -23.542  16.852   7.038  0.00  0.00     0.115 C 
HETATM   15  C   UNK     0     -22.717  16.771   8.313  0.00  0.00     0.021 A 
HETATM   16  N   UNK     0     -22.098  15.690   8.824  0.00  0.00    -0.361 N 
HETATM   17  C   UNK     0     -21.540  16.016   9.992  0.00  0.00     0.022 A 
HETATM   18  C   UNK     0     -21.799  17.377  10.250  0.00  0.00    -0.027 A 
HETATM   19  C   UNK     0     -22.536  17.838   9.190  0.00  0.00    -0.031 A 
HETATM   20  C   UNK     0     -23.002  19.276   9.048  0.00  0.00     0.051 C 
HETATM   21  C   UNK     0     -20.798  15.154  10.988  0.00  0.00     0.115 C 
HETATM   22  C   UNK     0     -21.241  13.718  11.134  0.00  0.00     0.022 A 
HETATM   23  N   UNK     0     -22.489  13.231  11.144  0.00  0.00    -0.361 N 
HETATM   24  C   UNK     0     -22.419  11.885  11.149  0.00  0.00     0.021 A 
HETATM   25  C   UNK     0     -21.093  11.495  11.152  0.00  0.00    -0.031 A 
HETATM   26  C   UNK     0     -20.510  10.097  11.196  0.00  0.00     0.051 C 
HETATM   27  C   UNK     0     -20.320  12.650  11.143  0.00  0.00    -0.027 A 
HETATM   28  C   UNK     0     -23.567  10.893  11.069  0.00  0.00     0.115 C 
HETATM   29  H   UNK     0     -25.289  13.029   9.996  0.00  0.00     0.165 HD
HETATM   30  H   UNK     0     -23.769  13.933   7.099  0.00  0.00     0.165 HD
HETATM   31  H   UNK     0     -22.012  14.689   8.328  0.00  0.00     0.165 HD
HETATM   32  H   UNK     0     -23.433  13.835  11.192  0.00  0.00     0.165 HD
ENDROOT
BRANCH   6  33
HETATM   33  C   UNK     0     -25.609   9.722   6.600  0.00  0.00     0.051 C 
BRANCH  33  34
HETATM   34  C   UNK     0     -26.529   8.570   6.927  0.00  0.00     0.114 C 
BRANCH  34  35
HETATM   35  C   UNK     0     -27.746   9.139   7.573  0.00  0.00     0.139 C 
HETATM   36  O   UNK     0     -28.574   9.812   6.892  0.00  0.00    -0.650 OA
BRANCH  35  37
HETATM   37  O   UNK     0     -28.031   8.963   8.922  0.00  0.00    -0.776 OA
HETATM   38  H   UNK     0     -28.818   8.419   9.236  0.00  0.00     0.167 HD
ENDBRANCH  35  37
ENDBRANCH  34  35
ENDBRANCH  33  34
ENDBRANCH   6  33
BRANCH  27  39
HETATM   39  C   UNK     0     -18.834  12.632  11.214  0.00  0.00     0.051 C 
BRANCH  39  40
HETATM   40  C   UNK     0     -18.205  12.248  12.478  0.00  0.00     0.114 C 
BRANCH  40  41
HETATM   41  C   UNK     0     -16.979  11.483  12.527  0.00  0.00     0.139 C 
HETATM   42  O   UNK     0     -16.947  10.248  12.610  0.00  0.00    -0.650 OA
BRANCH  41  43
HETATM   43  O   UNK     0     -15.733  12.171  12.477  0.00  0.00    -0.776 OA
HETATM   44  H   UNK     0     -15.688  12.999  13.059  0.00  0.00     0.167 HD
ENDBRANCH  41  43
ENDBRANCH  40  41
ENDBRANCH  39  40
ENDBRANCH  27  39
BRANCH  11  45
HETATM   45  C   UNK     0     -26.608  17.725   6.859  0.00  0.00     0.051 C 
BRANCH  45  46
HETATM   46  C   UNK     0     -26.574  18.485   8.135  0.00  0.00     0.114 C 
BRANCH  46  47
HETATM   47  C   UNK     0     -27.317  19.758   7.911  0.00  0.00     0.139 C 
HETATM   48  O   UNK     0     -27.605  20.457   8.893  0.00  0.00    -0.650 OA
BRANCH  47  49
HETATM   49  O   UNK     0     -27.675  20.149   6.645  0.00  0.00    -0.776 OA
HETATM   50  H   UNK     0     -27.995  19.478   5.937  0.00  0.00     0.167 HD
ENDBRANCH  47  49
ENDBRANCH  46  47
ENDBRANCH  45  46
ENDBRANCH  11  45
BRANCH  18  51
HETATM   51  C   UNK     0     -21.351  18.198  11.431  0.00  0.00     0.051 C 
BRANCH  51  52
HETATM   52  C   UNK     0     -22.447  18.070  12.479  0.00  0.00     0.114 C 
BRANCH  52  53
HETATM   53  C   UNK     0     -22.792  19.376  13.074  0.00  0.00     0.139 C 
HETATM   54  O   UNK     0     -23.305  19.427  14.203  0.00  0.00    -0.650 OA
BRANCH  53  55
HETATM   55  O   UNK     0     -22.546  20.530  12.371  0.00  0.00    -0.776 OA
HETATM   56  H   UNK     0     -21.728  20.730  11.845  0.00  0.00     0.167 HD
ENDBRANCH  53  55
ENDBRANCH  52  53
ENDBRANCH  51  52
ENDBRANCH  18  51
TORSDOF 16
ENDMDL
