MODEL 1
REMARK VINA RESULT:      -9.8      0.000      0.000
REMARK  16 active torsions:
REMARK  status: ('A' for Active; 'I' for Inactive)
REMARK    1  A    between atoms: C_6  and  C_7 
REMARK    2  A    between atoms: C_7  and  C_8 
REMARK    3  A    between atoms: C_8  and  C_9 
REMARK    4  A    between atoms: C_9  and  O_11 
REMARK    5  A    between atoms: C_16  and  C_17 
REMARK    6  A    between atoms: C_17  and  C_18 
REMARK    7  A    between atoms: C_18  and  C_19 
REMARK    8  A    between atoms: C_19  and  O_21 
REMARK    9  A    between atoms: C_28  and  C_29 
REMARK   10  A    between atoms: C_29  and  C_30 
REMARK   11  A    between atoms: C_30  and  C_31 
REMARK   12  A    between atoms: C_31  and  O_33 
REMARK   13  A    between atoms: C_42  and  C_43 
REMARK   14  A    between atoms: C_43  and  C_44 
REMARK   15  A    between atoms: C_44  and  C_45 
REMARK   16  A    between atoms: C_45  and  O_47 
ROOT
HETATM    1  C   UNK     0     -20.976 -17.404 -14.931  0.00  0.00     0.051 C 
HETATM    2  C   UNK     0     -21.031 -15.890 -14.945  0.00  0.00    -0.031 A 
HETATM    3  C   UNK     0     -21.062 -15.001 -13.883  0.00  0.00     0.021 A 
HETATM    4  N   UNK     0     -21.141 -13.739 -14.366  0.00  0.00    -0.361 N 
HETATM    5  C   UNK     0     -21.152 -13.803 -15.713  0.00  0.00     0.022 A 
HETATM    6  C   UNK     0     -21.087 -15.135 -16.109  0.00  0.00    -0.027 A 
HETATM    7  C   UNK     0     -21.135 -12.695 -16.719  0.00  0.00     0.115 C 
HETATM    8  C   UNK     0     -20.199 -11.533 -16.438  0.00  0.00     0.021 A 
HETATM    9  N   UNK     0     -18.985 -11.557 -15.866  0.00  0.00    -0.361 N 
HETATM   10  C   UNK     0     -18.559 -10.282 -15.733  0.00  0.00     0.022 A 
HETATM   11  C   UNK     0     -19.522  -9.415 -16.241  0.00  0.00    -0.027 A 
HETATM   12  C   UNK     0     -20.557 -10.196 -16.687  0.00  0.00    -0.031 A 
HETATM   13  C   UNK     0     -21.827  -9.682 -17.327  0.00  0.00     0.051 C 
HETATM   14  C   UNK     0     -17.258  -9.831 -15.076  0.00  0.00     0.115 C 
HETATM   15  C   UNK     0     -17.141 -10.220 -13.611  0.00  0.00     0.021 A 
HETATM   16  N   UNK     0     -17.184 -11.458 -13.084  0.00  0.00    -0.361 N 
HETATM   17  C   UNK     0     -17.116 -11.371 -11.754  0.00  0.00     0.022 A 
HETATM   18  C   UNK     0     -17.014 -10.012 -11.397  0.00  0.00    -0.027 A 
HETATM   19  C   UNK     0     -17.029  -9.301 -12.569  0.00  0.00    -0.031 A 
HETATM   20  C   UNK     0     -16.903  -7.790 -12.642  0.00  0.00     0.051 C 
HETATM   21  C   UNK     0     -17.196 -12.456 -10.703  0.00  0.00     0.115 C 
HETATM   22  C   UNK     0     -18.090 -13.639 -10.990  0.00  0.00     0.022 A 
HETATM   23  N   UNK     0     -19.301 -13.646 -11.562  0.00  0.00    -0.361 N 
HETATM   24  C   UNK     0     -19.671 -14.928 -11.755  0.00  0.00     0.021 A 
HETATM   25  C   UNK     0     -18.679 -15.767 -11.288  0.00  0.00    -0.031 A 
HETATM   26  C   UNK     0     -18.651 -17.281 -11.248  0.00  0.00     0.051 C 
HETATM   27  C   UNK     0     -17.656 -14.966 -10.793  0.00  0.00    -0.027 A 
HETATM   28  C   UNK     0     -20.920 -15.439 -12.452  0.00  0.00     0.115 C 
HETATM   29  H   UNK     0     -21.228 -12.813 -13.751  0.00  0.00     0.165 HD
HETATM   30  H   UNK     0     -18.404 -12.474 -15.601  0.00  0.00     0.165 HD
HETATM   31  H   UNK     0     -17.215 -12.417 -13.664  0.00  0.00     0.165 HD
HETATM   32  H   UNK     0     -19.926 -12.744 -11.795  0.00  0.00     0.165 HD
ENDROOT
BRANCH   6  33
HETATM   33  C   UNK     0     -21.077 -15.736 -17.492  0.00  0.00     0.051 C 
BRANCH  33  34
HETATM   34  C   UNK     0     -19.663 -16.009 -17.947  0.00  0.00     0.114 C 
BRANCH  34  35
HETATM   35  C   UNK     0     -19.137 -14.751 -18.548  0.00  0.00     0.139 C 
HETATM   36  O   UNK     0     -18.250 -14.078 -17.945  0.00  0.00    -0.650 OA
BRANCH  35  37
HETATM   37  O   UNK     0     -19.578 -14.263 -19.773  0.00  0.00    -0.776 OA
HETATM   38  H   UNK     0     -20.537 -14.000 -19.929  0.00  0.00     0.167 HD
ENDBRANCH  35  37
ENDBRANCH  34  35
ENDBRANCH  33  34
ENDBRANCH   6  33
BRANCH  27  39
HETATM   39  C   UNK     0     -16.439 -15.517 -10.137  0.00  0.00     0.051 C 
BRANCH  39  40
HETATM   40  C   UNK     0     -16.420 -15.611  -8.677  0.00  0.00     0.114 C 
BRANCH  40  41
HETATM   41  C   UNK     0     -16.848 -14.521  -7.829  0.00  0.00     0.139 C 
HETATM   42  O   UNK     0     -16.113 -13.580  -7.502  0.00  0.00    -0.650 OA
BRANCH  41  43
HETATM   43  O   UNK     0     -18.184 -14.513  -7.336  0.00  0.00    -0.776 OA
HETATM   44  H   UNK     0     -18.750 -13.743  -7.672  0.00  0.00     0.167 HD
ENDBRANCH  41  43
ENDBRANCH  40  41
ENDBRANCH  39  40
ENDBRANCH  27  39
BRANCH  11  45
HETATM   45  C   UNK     0     -19.488  -7.912 -16.317  0.00  0.00     0.051 C 
BRANCH  45  46
HETATM   46  C   UNK     0     -19.765  -7.233 -15.026  0.00  0.00     0.114 C 
BRANCH  46  47
HETATM   47  C   UNK     0     -21.152  -6.690 -15.100  0.00  0.00     0.139 C 
HETATM   48  O   UNK     0     -22.098  -7.443 -14.831  0.00  0.00    -0.650 OA
BRANCH  47  49
HETATM   49  O   UNK     0     -21.377  -5.386 -15.462  0.00  0.00    -0.776 OA
HETATM   50  H   UNK     0     -20.657  -4.815 -15.919  0.00  0.00     0.167 HD
ENDBRANCH  47  49
ENDBRANCH  46  47
ENDBRANCH  45  46
ENDBRANCH  11  45
BRANCH  18  51
HETATM   51  C   UNK     0     -16.887  -9.423 -10.016  0.00  0.00     0.051 C 
BRANCH  51  52
HETATM   52  C   UNK     0     -15.465  -9.713  -9.558  0.00  0.00     0.114 C 
BRANCH  52  53
HETATM   53  C   UNK     0     -15.341  -9.667  -8.088  0.00  0.00     0.139 C 
HETATM   54  O   UNK     0     -15.356  -8.576  -7.497  0.00  0.00    -0.650 OA
BRANCH  53  55
HETATM   55  O   UNK     0     -15.205 -10.837  -7.381  0.00  0.00    -0.776 OA
HETATM   56  H   UNK     0     -15.693 -11.078  -6.551  0.00  0.00     0.167 HD
ENDBRANCH  53  55
ENDBRANCH  52  53
ENDBRANCH  51  52
ENDBRANCH  18  51
TORSDOF 16
ENDMDL
MODEL 2
REMARK VINA RESULT:      -9.6      4.261      6.572
REMARK  16 active torsions:
REMARK  status: ('A' for Active; 'I' for Inactive)
REMARK    1  A    between atoms: C_6  and  C_7 
REMARK    2  A    between atoms: C_7  and  C_8 
REMARK    3  A    between atoms: C_8  and  C_9 
REMARK    4  A    between atoms: C_9  and  O_11 
REMARK    5  A    between atoms: C_16  and  C_17 
REMARK    6  A    between atoms: C_17  and  C_18 
REMARK    7  A    between atoms: C_18  and  C_19 
REMARK    8  A    between atoms: C_19  and  O_21 
REMARK    9  A    between atoms: C_28  and  C_29 
REMARK   10  A    between atoms: C_29  and  C_30 
REMARK   11  A    between atoms: C_30  and  C_31 
REMARK   12  A    between atoms: C_31  and  O_33 
REMARK   13  A    between atoms: C_42  and  C_43 
REMARK   14  A    between atoms: C_43  and  C_44 
REMARK   15  A    between atoms: C_44  and  C_45 
REMARK   16  A    between atoms: C_45  and  O_47 
ROOT
HETATM    1  C   UNK     0     -19.841 -13.072 -15.216  0.00  0.00     0.051 C 
HETATM    2  C   UNK     0     -19.964 -11.865 -16.124  0.00  0.00    -0.031 A 
HETATM    3  C   UNK     0     -20.139 -10.530 -15.794  0.00  0.00     0.021 A 
HETATM    4  N   UNK     0     -20.229  -9.802 -16.932  0.00  0.00    -0.361 N 
HETATM    5  C   UNK     0     -20.107 -10.643 -17.980  0.00  0.00     0.022 A 
HETATM    6  C   UNK     0     -19.943 -11.942 -17.510  0.00  0.00    -0.027 A 
HETATM    7  C   UNK     0     -20.044 -10.336 -19.444  0.00  0.00     0.115 C 
HETATM    8  C   UNK     0     -19.194  -9.146 -19.855  0.00  0.00     0.021 A 
HETATM    9  N   UNK     0     -18.042  -8.717 -19.319  0.00  0.00    -0.361 N 
HETATM   10  C   UNK     0     -17.690  -7.572 -19.942  0.00  0.00     0.022 A 
HETATM   11  C   UNK     0     -18.638  -7.260 -20.912  0.00  0.00    -0.027 A 
HETATM   12  C   UNK     0     -19.588  -8.248 -20.863  0.00  0.00    -0.031 A 
HETATM   13  C   UNK     0     -20.813  -8.327 -21.746  0.00  0.00     0.051 C 
HETATM   14  C   UNK     0     -16.481  -6.701 -19.613  0.00  0.00     0.115 C 
HETATM   15  C   UNK     0     -16.488  -6.148 -18.197  0.00  0.00     0.021 A 
HETATM   16  N   UNK     0     -16.524  -6.842 -17.044  0.00  0.00    -0.361 N 
HETATM   17  C   UNK     0     -16.589  -5.988 -16.020  0.00  0.00     0.022 A 
HETATM   18  C   UNK     0     -16.585  -4.675 -16.529  0.00  0.00    -0.027 A 
HETATM   19  C   UNK     0     -16.520  -4.789 -17.894  0.00  0.00    -0.031 A 
HETATM   20  C   UNK     0     -16.458  -3.601 -18.838  0.00  0.00     0.051 C 
HETATM   21  C   UNK     0     -16.720  -6.257 -14.538  0.00  0.00     0.115 C 
HETATM   22  C   UNK     0     -17.526  -7.462 -14.115  0.00  0.00     0.022 A 
HETATM   23  N   UNK     0     -18.675  -7.916 -14.634  0.00  0.00    -0.361 N 
HETATM   24  C   UNK     0     -18.965  -9.097 -14.052  0.00  0.00     0.021 A 
HETATM   25  C   UNK     0     -17.984  -9.407 -13.130  0.00  0.00    -0.031 A 
HETATM   26  C   UNK     0     -17.890 -10.602 -12.203  0.00  0.00     0.051 C 
HETATM   27  C   UNK     0     -17.052  -8.376 -13.152  0.00  0.00    -0.027 A 
HETATM   28  C   UNK     0     -20.115 -10.034 -14.375  0.00  0.00     0.115 C 
HETATM   29  H   UNK     0     -20.418  -8.705 -16.987  0.00  0.00     0.165 HD
HETATM   30  H   UNK     0     -17.447  -9.246 -18.534  0.00  0.00     0.165 HD
HETATM   31  H   UNK     0     -16.454  -7.957 -16.947  0.00  0.00     0.165 HD
HETATM   32  H   UNK     0     -19.315  -7.384 -15.385  0.00  0.00     0.165 HD
ENDROOT
BRANCH   6  33
HETATM   33  C   UNK     0     -19.772 -13.233 -18.269  0.00  0.00     0.051 C 
BRANCH  33  34
HETATM   34  C   UNK     0     -18.333 -13.421 -18.688  0.00  0.00     0.114 C 
BRANCH  34  35
HETATM   35  C   UNK     0     -18.281 -13.308 -20.174  0.00  0.00     0.139 C 
HETATM   36  O   UNK     0     -19.125 -13.923 -20.889  0.00  0.00    -0.650 OA
BRANCH  35  37
HETATM   37  O   UNK     0     -17.331 -12.538 -20.834  0.00  0.00    -0.776 OA
HETATM   38  H   UNK     0     -17.396 -11.534 -20.881  0.00  0.00     0.167 HD
ENDBRANCH  35  37
ENDBRANCH  34  35
ENDBRANCH  33  34
ENDBRANCH   6  33
BRANCH  27  39
HETATM   39  C   UNK     0     -15.880  -8.322 -12.236  0.00  0.00     0.051 C 
BRANCH  39  40
HETATM   40  C   UNK     0     -14.557  -8.615 -12.785  0.00  0.00     0.114 C 
BRANCH  40  41
HETATM   41  C   UNK     0     -13.341  -8.335 -12.055  0.00  0.00     0.139 C 
HETATM   42  O   UNK     0     -12.322  -7.863 -12.579  0.00  0.00    -0.650 OA
BRANCH  41  43
HETATM   43  O   UNK     0     -13.294  -8.610 -10.659  0.00  0.00    -0.776 OA
HETATM   44  H   UNK     0     -14.195  -8.592 -10.197  0.00  0.00     0.167 HD
ENDBRANCH  41  43
ENDBRANCH  40  41
ENDBRANCH  39  40
ENDBRANCH  27  39
BRANCH  11  45
HETATM   45  C   UNK     0     -18.667  -6.090 -21.858  0.00  0.00     0.051 C 
BRANCH  45  46
HETATM   46  C   UNK     0     -18.886  -4.780 -21.195  0.00  0.00     0.114 C 
BRANCH  46  47
HETATM   47  C   UNK     0     -18.039  -3.779 -21.905  0.00  0.00     0.139 C 
HETATM   48  O   UNK     0     -16.910  -4.121 -22.284  0.00  0.00    -0.650 OA
BRANCH  47  49
HETATM   49  O   UNK     0     -18.497  -2.506 -22.134  0.00  0.00    -0.776 OA
HETATM   50  H   UNK     0     -19.380  -2.165 -21.735  0.00  0.00     0.167 HD
ENDBRANCH  47  49
ENDBRANCH  46  47
ENDBRANCH  45  46
ENDBRANCH  11  45
BRANCH  18  51
HETATM   51  C   UNK     0     -16.619  -3.381 -15.757  0.00  0.00     0.051 C 
BRANCH  51  52
HETATM   52  C   UNK     0     -15.216  -3.176 -15.207  0.00  0.00     0.114 C 
BRANCH  52  53
HETATM   53  C   UNK     0     -15.162  -2.062 -14.241  0.00  0.00     0.139 C 
HETATM   54  O   UNK     0     -14.122  -1.394 -14.120  0.00  0.00    -0.650 OA
BRANCH  53  55
HETATM   55  O   UNK     0     -16.265  -1.771 -13.476  0.00  0.00    -0.776 OA
HETATM   56  H   UNK     0     -16.310  -1.793 -12.484  0.00  0.00     0.167 HD
ENDBRANCH  53  55
ENDBRANCH  52  53
ENDBRANCH  51  52
ENDBRANCH  18  51
TORSDOF 16
ENDMDL
MODEL 3
REMARK VINA RESULT:      -9.4      5.041     10.336
REMARK  16 active torsions:
REMARK  status: ('A' for Active; 'I' for Inactive)
REMARK    1  A    between atoms: C_6  and  C_7 
REMARK    2  A    between atoms: C_7  and  C_8 
REMARK    3  A    between atoms: C_8  and  C_9 
REMARK    4  A    between atoms: C_9  and  O_11 
REMARK    5  A    between atoms: C_16  and  C_17 
REMARK    6  A    between atoms: C_17  and  C_18 
REMARK    7  A    between atoms: C_18  and  C_19 
REMARK    8  A    between atoms: C_19  and  O_21 
REMARK    9  A    between atoms: C_28  and  C_29 
REMARK   10  A    between atoms: C_29  and  C_30 
REMARK   11  A    between atoms: C_30  and  C_31 
REMARK   12  A    between atoms: C_31  and  O_33 
REMARK   13  A    between atoms: C_42  and  C_43 
REMARK   14  A    between atoms: C_43  and  C_44 
REMARK   15  A    between atoms: C_44  and  C_45 
REMARK   16  A    between atoms: C_45  and  O_47 
ROOT
HETATM    1  C   UNK     0     -19.516 -14.767 -12.594  0.00  0.00     0.051 C 
HETATM    2  C   UNK     0     -19.446 -15.952 -11.653  0.00  0.00    -0.031 A 
HETATM    3  C   UNK     0     -18.441 -16.318 -10.771  0.00  0.00     0.021 A 
HETATM    4  N   UNK     0     -18.792 -17.470 -10.154  0.00  0.00    -0.361 N 
HETATM    5  C   UNK     0     -20.004 -17.843 -10.616  0.00  0.00     0.022 A 
HETATM    6  C   UNK     0     -20.440 -16.917 -11.558  0.00  0.00    -0.027 A 
HETATM    7  C   UNK     0     -20.874 -18.985 -10.193  0.00  0.00     0.115 C 
HETATM    8  C   UNK     0     -20.981 -19.244  -8.700  0.00  0.00     0.021 A 
HETATM    9  N   UNK     0     -20.992 -18.354  -7.696  0.00  0.00    -0.361 N 
HETATM   10  C   UNK     0     -21.007 -19.036  -6.531  0.00  0.00     0.022 A 
HETATM   11  C   UNK     0     -21.015 -20.403  -6.793  0.00  0.00    -0.027 A 
HETATM   12  C   UNK     0     -20.998 -20.541  -8.157  0.00  0.00    -0.031 A 
HETATM   13  C   UNK     0     -21.005 -21.856  -8.903  0.00  0.00     0.051 C 
HETATM   14  C   UNK     0     -20.961 -18.431  -5.131  0.00  0.00     0.115 C 
HETATM   15  C   UNK     0     -19.708 -17.616  -4.854  0.00  0.00     0.021 A 
HETATM   16  N   UNK     0     -19.263 -16.538  -5.526  0.00  0.00    -0.361 N 
HETATM   17  C   UNK     0     -18.091 -16.155  -5.015  0.00  0.00     0.022 A 
HETATM   18  C   UNK     0     -17.761 -17.019  -3.952  0.00  0.00    -0.027 A 
HETATM   19  C   UNK     0     -18.782 -17.929  -3.860  0.00  0.00    -0.031 A 
HETATM   20  C   UNK     0     -18.844 -19.026  -2.813  0.00  0.00     0.051 C 
HETATM   21  C   UNK     0     -17.152 -15.054  -5.454  0.00  0.00     0.115 C 
HETATM   22  C   UNK     0     -17.070 -14.756  -6.932  0.00  0.00     0.022 A 
HETATM   23  N   UNK     0     -17.060 -15.622  -7.954  0.00  0.00    -0.361 N 
HETATM   24  C   UNK     0     -17.124 -14.920  -9.104  0.00  0.00     0.021 A 
HETATM   25  C   UNK     0     -17.165 -13.570  -8.816  0.00  0.00    -0.031 A 
HETATM   26  C   UNK     0     -17.201 -12.392  -9.768  0.00  0.00     0.051 C 
HETATM   27  C   UNK     0     -17.131 -13.440  -7.432  0.00  0.00    -0.027 A 
HETATM   28  C   UNK     0     -17.231 -15.463 -10.519  0.00  0.00     0.115 C 
HETATM   29  H   UNK     0     -18.165 -18.034  -9.425  0.00  0.00     0.165 HD
HETATM   30  H   UNK     0     -21.041 -17.243  -7.806  0.00  0.00     0.165 HD
HETATM   31  H   UNK     0     -19.809 -16.007  -6.349  0.00  0.00     0.165 HD
HETATM   32  H   UNK     0     -16.965 -16.736  -7.875  0.00  0.00     0.165 HD
ENDROOT
BRANCH   6  33
HETATM   33  C   UNK     0     -21.713 -16.881 -12.365  0.00  0.00     0.051 C 
BRANCH  33  34
HETATM   34  C   UNK     0     -22.901 -16.589 -11.479  0.00  0.00     0.114 C 
BRANCH  34  35
HETATM   35  C   UNK     0     -22.748 -15.194 -10.974  0.00  0.00     0.139 C 
HETATM   36  O   UNK     0     -22.880 -14.213 -11.762  0.00  0.00    -0.650 OA
BRANCH  35  37
HETATM   37  O   UNK     0     -22.464 -14.906  -9.645  0.00  0.00    -0.776 OA
HETATM   38  H   UNK     0     -22.752 -14.044  -9.211  0.00  0.00     0.167 HD
ENDBRANCH  35  37
ENDBRANCH  34  35
ENDBRANCH  33  34
ENDBRANCH   6  33
BRANCH  27  39
HETATM   39  C   UNK     0     -17.088 -12.121  -6.743  0.00  0.00     0.051 C 
BRANCH  39  40
HETATM   40  C   UNK     0     -16.044 -11.171  -7.126  0.00  0.00     0.114 C 
BRANCH  40  41
HETATM   41  C   UNK     0     -15.832  -9.931  -6.414  0.00  0.00     0.139 C 
HETATM   42  O   UNK     0     -16.751  -9.246  -5.946  0.00  0.00    -0.650 OA
BRANCH  41  43
HETATM   43  O   UNK     0     -14.501  -9.458  -6.232  0.00  0.00    -0.776 OA
HETATM   44  H   UNK     0     -14.390  -8.805  -5.466  0.00  0.00     0.167 HD
ENDBRANCH  41  43
ENDBRANCH  40  41
ENDBRANCH  39  40
ENDBRANCH  27  39
BRANCH  11  45
HETATM   45  C   UNK     0     -21.039 -21.548  -5.817  0.00  0.00     0.051 C 
BRANCH  45  46
HETATM   46  C   UNK     0     -22.339 -21.723  -5.120  0.00  0.00     0.114 C 
BRANCH  46  47
HETATM   47  C   UNK     0     -22.867 -23.065  -5.499  0.00  0.00     0.139 C 
HETATM   48  O   UNK     0     -22.202 -23.765  -6.275  0.00  0.00    -0.650 OA
BRANCH  47  49
HETATM   49  O   UNK     0     -24.063 -23.516  -5.001  0.00  0.00    -0.776 OA
HETATM   50  H   UNK     0     -24.159 -23.856  -4.036  0.00  0.00     0.167 HD
ENDBRANCH  47  49
ENDBRANCH  46  47
ENDBRANCH  45  46
ENDBRANCH  11  45
BRANCH  18  51
HETATM   51  C   UNK     0     -16.549 -16.967  -3.058  0.00  0.00     0.051 C 
BRANCH  51  52
HETATM   52  C   UNK     0     -15.421 -17.634  -3.831  0.00  0.00     0.114 C 
BRANCH  52  53
HETATM   53  C   UNK     0     -14.696 -18.619  -3.005  0.00  0.00     0.139 C 
HETATM   54  O   UNK     0     -15.321 -19.366  -2.237  0.00  0.00    -0.650 OA
BRANCH  53  55
HETATM   55  O   UNK     0     -13.327 -18.701  -3.091  0.00  0.00    -0.776 OA
HETATM   56  H   UNK     0     -12.790 -19.536  -3.082  0.00  0.00     0.167 HD
ENDBRANCH  53  55
ENDBRANCH  52  53
ENDBRANCH  51  52
ENDBRANCH  18  51
TORSDOF 16
ENDMDL
MODEL 4
REMARK VINA RESULT:      -9.3      1.914      6.855
REMARK  16 active torsions:
REMARK  status: ('A' for Active; 'I' for Inactive)
REMARK    1  A    between atoms: C_6  and  C_7 
REMARK    2  A    between atoms: C_7  and  C_8 
REMARK    3  A    between atoms: C_8  and  C_9 
REMARK    4  A    between atoms: C_9  and  O_11 
REMARK    5  A    between atoms: C_16  and  C_17 
REMARK    6  A    between atoms: C_17  and  C_18 
REMARK    7  A    between atoms: C_18  and  C_19 
REMARK    8  A    between atoms: C_19  and  O_21 
REMARK    9  A    between atoms: C_28  and  C_29 
REMARK   10  A    between atoms: C_29  and  C_30 
REMARK   11  A    between atoms: C_30  and  C_31 
REMARK   12  A    between atoms: C_31  and  O_33 
REMARK   13  A    between atoms: C_42  and  C_43 
REMARK   14  A    between atoms: C_43  and  C_44 
REMARK   15  A    between atoms: C_44  and  C_45 
REMARK   16  A    between atoms: C_45  and  O_47 
ROOT
HETATM    1  C   UNK     0     -19.025  -8.693 -16.844  0.00  0.00     0.051 C 
HETATM    2  C   UNK     0     -19.049 -10.176 -16.536  0.00  0.00    -0.031 A 
HETATM    3  C   UNK     0     -18.096 -10.958 -15.902  0.00  0.00     0.021 A 
HETATM    4  N   UNK     0     -18.528 -12.241 -15.872  0.00  0.00    -0.361 N 
HETATM    5  C   UNK     0     -19.739 -12.292 -16.465  0.00  0.00     0.022 A 
HETATM    6  C   UNK     0     -20.094 -11.018 -16.894  0.00  0.00    -0.027 A 
HETATM    7  C   UNK     0     -20.681 -13.447 -16.608  0.00  0.00     0.115 C 
HETATM    8  C   UNK     0     -20.855 -14.340 -15.392  0.00  0.00     0.021 A 
HETATM    9  N   UNK     0     -20.859 -13.995 -14.095  0.00  0.00    -0.361 N 
HETATM   10  C   UNK     0     -20.951 -15.124 -13.362  0.00  0.00     0.022 A 
HETATM   11  C   UNK     0     -21.018 -16.226 -14.210  0.00  0.00    -0.027 A 
HETATM   12  C   UNK     0     -20.958 -15.739 -15.490  0.00  0.00    -0.031 A 
HETATM   13  C   UNK     0     -21.003 -16.578 -16.748  0.00  0.00     0.051 C 
HETATM   14  C   UNK     0     -20.925 -15.214 -11.839  0.00  0.00     0.115 C 
HETATM   15  C   UNK     0     -19.644 -14.689 -11.212  0.00  0.00     0.021 A 
HETATM   16  N   UNK     0     -19.120 -13.454 -11.324  0.00  0.00    -0.361 N 
HETATM   17  C   UNK     0     -17.950 -13.414 -10.683  0.00  0.00     0.022 A 
HETATM   18  C   UNK     0     -17.703 -14.681 -10.118  0.00  0.00    -0.027 A 
HETATM   19  C   UNK     0     -18.772 -15.470 -10.455  0.00  0.00    -0.031 A 
HETATM   20  C   UNK     0     -18.927 -16.914 -10.014  0.00  0.00     0.051 C 
HETATM   21  C   UNK     0     -16.942 -12.293 -10.571  0.00  0.00     0.115 C 
HETATM   22  C   UNK     0     -16.790 -11.370 -11.757  0.00  0.00     0.022 A 
HETATM   23  N   UNK     0     -16.787 -11.685 -13.059  0.00  0.00    -0.361 N 
HETATM   24  C   UNK     0     -16.773 -10.540 -13.771  0.00  0.00     0.021 A 
HETATM   25  C   UNK     0     -16.757  -9.462 -12.907  0.00  0.00    -0.031 A 
HETATM   26  C   UNK     0     -16.697  -7.983 -13.229  0.00  0.00     0.051 C 
HETATM   27  C   UNK     0     -16.767  -9.968 -11.612  0.00  0.00    -0.027 A 
HETATM   28  C   UNK     0     -16.855 -10.383 -15.280  0.00  0.00     0.115 C 
HETATM   29  H   UNK     0     -17.957 -13.109 -15.467  0.00  0.00     0.165 HD
HETATM   30  H   UNK     0     -20.847 -12.952 -13.695  0.00  0.00     0.165 HD
HETATM   31  H   UNK     0     -19.609 -12.578 -11.825  0.00  0.00     0.165 HD
HETATM   32  H   UNK     0     -16.750 -12.720 -13.487  0.00  0.00     0.165 HD
ENDROOT
BRANCH   6  33
HETATM   33  C   UNK     0     -21.333 -10.546 -17.612  0.00  0.00     0.051 C 
BRANCH  33  34
HETATM   34  C   UNK     0     -22.547 -10.669 -16.722  0.00  0.00     0.114 C 
BRANCH  34  35
HETATM   35  C   UNK     0     -22.486  -9.560 -15.728  0.00  0.00     0.139 C 
HETATM   36  O   UNK     0     -22.306  -9.812 -14.501  0.00  0.00    -0.650 OA
BRANCH  35  37
HETATM   37  O   UNK     0     -22.619  -8.224 -16.087  0.00  0.00    -0.776 OA
HETATM   38  H   UNK     0     -22.676  -7.489 -15.401  0.00  0.00     0.167 HD
ENDBRANCH  35  37
ENDBRANCH  34  35
ENDBRANCH  33  34
ENDBRANCH   6  33
BRANCH  27  39
HETATM   39  C   UNK     0     -16.683  -9.103 -10.404  0.00  0.00     0.051 C 
BRANCH  39  40
HETATM   40  C   UNK     0     -15.725  -9.463  -9.358  0.00  0.00     0.114 C 
BRANCH  40  41
HETATM   41  C   UNK     0     -16.138 -10.063  -8.109  0.00  0.00     0.139 C 
HETATM   42  O   UNK     0     -17.285  -9.969  -7.652  0.00  0.00    -0.650 OA
BRANCH  41  43
HETATM   43  O   UNK     0     -15.188 -10.805  -7.351  0.00  0.00    -0.776 OA
HETATM   44  H   UNK     0     -14.524 -10.236  -6.840  0.00  0.00     0.167 HD
ENDBRANCH  41  43
ENDBRANCH  40  41
ENDBRANCH  39  40
ENDBRANCH  27  39
BRANCH  11  45
HETATM   45  C   UNK     0     -21.136 -17.683 -13.853  0.00  0.00     0.051 C 
BRANCH  45  46
HETATM   46  C   UNK     0     -19.916 -18.255 -13.227  0.00  0.00     0.114 C 
BRANCH  46  47
HETATM   47  C   UNK     0     -19.681 -19.587 -13.854  0.00  0.00     0.139 C 
HETATM   48  O   UNK     0     -20.207 -19.827 -14.950  0.00  0.00    -0.650 OA
BRANCH  47  49
HETATM   49  O   UNK     0     -18.901 -20.529 -13.231  0.00  0.00    -0.776 OA
HETATM   50  H   UNK     0     -18.470 -21.306 -13.746  0.00  0.00     0.167 HD
ENDBRANCH  47  49
ENDBRANCH  46  47
ENDBRANCH  45  46
ENDBRANCH  11  45
BRANCH  18  51
HETATM   51  C   UNK     0     -16.524 -15.110  -9.284  0.00  0.00     0.051 C 
BRANCH  51  52
HETATM   52  C   UNK     0     -16.729 -14.494  -7.908  0.00  0.00     0.114 C 
BRANCH  52  53
HETATM   53  C   UNK     0     -17.052 -15.515  -6.892  0.00  0.00     0.139 C 
HETATM   54  O   UNK     0     -16.141 -16.068  -6.256  0.00  0.00    -0.650 OA
BRANCH  53  55
HETATM   55  O   UNK     0     -18.363 -15.850  -6.659  0.00  0.00    -0.776 OA
HETATM   56  H   UNK     0     -18.818 -16.678  -6.964  0.00  0.00     0.167 HD
ENDBRANCH  53  55
ENDBRANCH  52  53
ENDBRANCH  51  52
ENDBRANCH  18  51
TORSDOF 16
ENDMDL
MODEL 5
REMARK VINA RESULT:      -9.3      1.842      2.076
REMARK  16 active torsions:
REMARK  status: ('A' for Active; 'I' for Inactive)
REMARK    1  A    between atoms: C_6  and  C_7 
REMARK    2  A    between atoms: C_7  and  C_8 
REMARK    3  A    between atoms: C_8  and  C_9 
REMARK    4  A    between atoms: C_9  and  O_11 
REMARK    5  A    between atoms: C_16  and  C_17 
REMARK    6  A    between atoms: C_17  and  C_18 
REMARK    7  A    between atoms: C_18  and  C_19 
REMARK    8  A    between atoms: C_19  and  O_21 
REMARK    9  A    between atoms: C_28  and  C_29 
REMARK   10  A    between atoms: C_29  and  C_30 
REMARK   11  A    between atoms: C_30  and  C_31 
REMARK   12  A    between atoms: C_31  and  O_33 
REMARK   13  A    between atoms: C_42  and  C_43 
REMARK   14  A    between atoms: C_43  and  C_44 
REMARK   15  A    between atoms: C_44  and  C_45 
REMARK   16  A    between atoms: C_45  and  O_47 
ROOT
HETATM    1  C   UNK     0     -21.032 -17.559 -15.467  0.00  0.00     0.051 C 
HETATM    2  C   UNK     0     -20.911 -16.063 -15.675  0.00  0.00    -0.031 A 
HETATM    3  C   UNK     0     -21.031 -15.034 -14.754  0.00  0.00     0.021 A 
HETATM    4  N   UNK     0     -20.878 -13.850 -15.393  0.00  0.00    -0.361 N 
HETATM    5  C   UNK     0     -20.654 -14.102 -16.700  0.00  0.00     0.022 A 
HETATM    6  C   UNK     0     -20.671 -15.477 -16.911  0.00  0.00    -0.027 A 
HETATM    7  C   UNK     0     -20.330 -13.153 -17.811  0.00  0.00     0.115 C 
HETATM    8  C   UNK     0     -19.334 -12.051 -17.497  0.00  0.00     0.021 A 
HETATM    9  N   UNK     0     -18.253 -12.102 -16.703  0.00  0.00    -0.361 N 
HETATM   10  C   UNK     0     -17.716 -10.865 -16.647  0.00  0.00     0.022 A 
HETATM   11  C   UNK     0     -18.466  -9.995 -17.433  0.00  0.00    -0.027 A 
HETATM   12  C   UNK     0     -19.487 -10.736 -17.972  0.00  0.00    -0.031 A 
HETATM   13  C   UNK     0     -20.555 -10.206 -18.902  0.00  0.00     0.051 C 
HETATM   14  C   UNK     0     -16.511 -10.443 -15.810  0.00  0.00     0.115 C 
HETATM   15  C   UNK     0     -16.703 -10.631 -14.314  0.00  0.00     0.021 A 
HETATM   16  N   UNK     0     -16.981 -11.774 -13.659  0.00  0.00    -0.361 N 
HETATM   17  C   UNK     0     -17.143 -11.507 -12.361  0.00  0.00     0.022 A 
HETATM   18  C   UNK     0     -16.953 -10.125 -12.160  0.00  0.00    -0.027 A 
HETATM   19  C   UNK     0     -16.677  -9.588 -13.390  0.00  0.00    -0.031 A 
HETATM   20  C   UNK     0     -16.368  -8.120 -13.621  0.00  0.00     0.051 C 
HETATM   21  C   UNK     0     -17.534 -12.421 -11.222  0.00  0.00     0.115 C 
HETATM   22  C   UNK     0     -18.491 -13.549 -11.530  0.00  0.00     0.022 A 
HETATM   23  N   UNK     0     -19.572 -13.528 -12.320  0.00  0.00    -0.361 N 
HETATM   24  C   UNK     0     -20.045 -14.786 -12.424  0.00  0.00     0.021 A 
HETATM   25  C   UNK     0     -19.255 -15.637 -11.675  0.00  0.00    -0.031 A 
HETATM   26  C   UNK     0     -19.407 -17.126 -11.447  0.00  0.00     0.051 C 
HETATM   27  C   UNK     0     -18.253 -14.868 -11.093  0.00  0.00    -0.027 A 
HETATM   28  C   UNK     0     -21.199 -15.277 -13.281  0.00  0.00     0.115 C 
HETATM   29  H   UNK     0     -20.968 -12.843 -14.924  0.00  0.00     0.165 HD
HETATM   30  H   UNK     0     -17.837 -13.021 -16.222  0.00  0.00     0.165 HD
HETATM   31  H   UNK     0     -17.016 -12.798 -14.114  0.00  0.00     0.165 HD
HETATM   32  H   UNK     0     -20.038 -12.616 -12.776  0.00  0.00     0.165 HD
ENDROOT
BRANCH   6  33
HETATM   33  C   UNK     0     -20.482 -16.265 -18.183  0.00  0.00     0.051 C 
BRANCH  33  34
HETATM   34  C   UNK     0     -19.125 -15.991 -18.785  0.00  0.00     0.114 C 
BRANCH  34  35
HETATM   35  C   UNK     0     -19.324 -15.752 -20.244  0.00  0.00     0.139 C 
HETATM   36  O   UNK     0     -18.886 -14.694 -20.782  0.00  0.00    -0.650 OA
BRANCH  35  37
HETATM   37  O   UNK     0     -19.981 -16.657 -21.068  0.00  0.00    -0.776 OA
HETATM   38  H   UNK     0     -20.200 -16.445 -22.028  0.00  0.00     0.167 HD
ENDBRANCH  35  37
ENDBRANCH  34  35
ENDBRANCH  33  34
ENDBRANCH   6  33
BRANCH  27  39
HETATM   39  C   UNK     0     -17.245 -15.428 -10.152  0.00  0.00     0.051 C 
BRANCH  39  40
HETATM   40  C   UNK     0     -17.559 -15.438  -8.724  0.00  0.00     0.114 C 
BRANCH  40  41
HETATM   41  C   UNK     0     -17.175 -14.359  -7.842  0.00  0.00     0.139 C 
HETATM   42  O   UNK     0     -16.012 -13.948  -7.732  0.00  0.00    -0.650 OA
BRANCH  41  43
HETATM   43  O   UNK     0     -18.174 -13.722  -7.052  0.00  0.00    -0.776 OA
HETATM   44  H   UNK     0     -18.210 -14.036  -6.090  0.00  0.00     0.167 HD
ENDBRANCH  41  43
ENDBRANCH  40  41
ENDBRANCH  39  40
ENDBRANCH  27  39
BRANCH  11  45
HETATM   45  C   UNK     0     -18.249  -8.527 -17.683  0.00  0.00     0.051 C 
BRANCH  45  46
HETATM   46  C   UNK     0     -17.225  -8.234 -18.718  0.00  0.00     0.114 C 
BRANCH  46  47
HETATM   47  C   UNK     0     -17.900  -7.462 -19.801  0.00  0.00     0.139 C 
HETATM   48  O   UNK     0     -18.432  -8.086 -20.730  0.00  0.00    -0.650 OA
BRANCH  47  49
HETATM   49  O   UNK     0     -17.931  -6.091 -19.772  0.00  0.00    -0.776 OA
HETATM   50  H   UNK     0     -17.110  -5.532 -19.509  0.00  0.00     0.167 HD
ENDBRANCH  47  49
ENDBRANCH  46  47
ENDBRANCH  45  46
ENDBRANCH  11  45
BRANCH  18  51
HETATM   51  C   UNK     0     -17.010  -9.362 -10.862  0.00  0.00     0.051 C 
BRANCH  51  52
HETATM   52  C   UNK     0     -15.680  -9.608 -10.164  0.00  0.00     0.114 C 
BRANCH  52  53
HETATM   53  C   UNK     0     -15.866 -10.031  -8.762  0.00  0.00     0.139 C 
HETATM   54  O   UNK     0     -16.959 -10.486  -8.390  0.00  0.00    -0.650 OA
BRANCH  53  55
HETATM   55  O   UNK     0     -14.824  -9.914  -7.874  0.00  0.00    -0.776 OA
HETATM   56  H   UNK     0     -13.973  -9.428  -8.033  0.00  0.00     0.167 HD
ENDBRANCH  53  55
ENDBRANCH  52  53
ENDBRANCH  51  52
ENDBRANCH  18  51
TORSDOF 16
ENDMDL
MODEL 6
REMARK VINA RESULT:      -9.2      2.442      3.382
REMARK  16 active torsions:
REMARK  status: ('A' for Active; 'I' for Inactive)
REMARK    1  A    between atoms: C_6  and  C_7 
REMARK    2  A    between atoms: C_7  and  C_8 
REMARK    3  A    between atoms: C_8  and  C_9 
REMARK    4  A    between atoms: C_9  and  O_11 
REMARK    5  A    between atoms: C_16  and  C_17 
REMARK    6  A    between atoms: C_17  and  C_18 
REMARK    7  A    between atoms: C_18  and  C_19 
REMARK    8  A    between atoms: C_19  and  O_21 
REMARK    9  A    between atoms: C_28  and  C_29 
REMARK   10  A    between atoms: C_29  and  C_30 
REMARK   11  A    between atoms: C_30  and  C_31 
REMARK   12  A    between atoms: C_31  and  O_33 
REMARK   13  A    between atoms: C_42  and  C_43 
REMARK   14  A    between atoms: C_43  and  C_44 
REMARK   15  A    between atoms: C_44  and  C_45 
REMARK   16  A    between atoms: C_45  and  O_47 
ROOT
HETATM    1  C   UNK     0     -21.282 -13.940 -16.857  0.00  0.00     0.051 C 
HETATM    2  C   UNK     0     -20.636 -12.600 -16.570  0.00  0.00    -0.031 A 
HETATM    3  C   UNK     0     -20.594 -11.879 -15.387  0.00  0.00     0.021 A 
HETATM    4  N   UNK     0     -19.933 -10.717 -15.602  0.00  0.00    -0.361 N 
HETATM    5  C   UNK     0     -19.547 -10.685 -16.894  0.00  0.00     0.022 A 
HETATM    6  C   UNK     0     -19.972 -11.846 -17.530  0.00  0.00    -0.027 A 
HETATM    7  C   UNK     0     -18.712  -9.672 -17.613  0.00  0.00     0.115 C 
HETATM    8  C   UNK     0     -17.493  -9.146 -16.875  0.00  0.00     0.021 A 
HETATM    9  N   UNK     0     -16.673  -9.803 -16.041  0.00  0.00    -0.361 N 
HETATM   10  C   UNK     0     -15.782  -8.918 -15.546  0.00  0.00     0.022 A 
HETATM   11  C   UNK     0     -16.029  -7.658 -16.084  0.00  0.00    -0.027 A 
HETATM   12  C   UNK     0     -17.105  -7.795 -16.922  0.00  0.00    -0.031 A 
HETATM   13  C   UNK     0     -17.728  -6.681 -17.734  0.00  0.00     0.051 C 
HETATM   14  C   UNK     0     -14.700  -9.211 -14.510  0.00  0.00     0.115 C 
HETATM   15  C   UNK     0     -15.241  -9.696 -13.175  0.00  0.00     0.021 A 
HETATM   16  N   UNK     0     -16.005 -10.780 -12.943  0.00  0.00    -0.361 N 
HETATM   17  C   UNK     0     -16.329 -10.819 -11.649  0.00  0.00     0.022 A 
HETATM   18  C   UNK     0     -15.739  -9.714 -11.004  0.00  0.00    -0.027 A 
HETATM   19  C   UNK     0     -15.060  -9.019 -11.971  0.00  0.00    -0.031 A 
HETATM   20  C   UNK     0     -14.246  -7.768 -11.696  0.00  0.00     0.051 C 
HETATM   21  C   UNK     0     -17.220 -11.783 -10.899  0.00  0.00     0.115 C 
HETATM   22  C   UNK     0     -18.412 -12.349 -11.635  0.00  0.00     0.022 A 
HETATM   23  N   UNK     0     -19.243 -11.719 -12.476  0.00  0.00    -0.361 N 
HETATM   24  C   UNK     0     -20.073 -12.635 -13.016  0.00  0.00     0.021 A 
HETATM   25  C   UNK     0     -19.775 -13.883 -12.503  0.00  0.00    -0.031 A 
HETATM   26  C   UNK     0     -20.452 -15.211 -12.773  0.00  0.00     0.051 C 
HETATM   27  C   UNK     0     -18.715 -13.725 -11.617  0.00  0.00    -0.027 A 
HETATM   28  C   UNK     0     -21.126 -12.417 -14.089  0.00  0.00     0.115 C 
HETATM   29  H   UNK     0     -19.780  -9.909 -14.849  0.00  0.00     0.165 HD
HETATM   30  H   UNK     0     -16.689 -10.901 -15.837  0.00  0.00     0.165 HD
HETATM   31  H   UNK     0     -16.283 -11.560 -13.699  0.00  0.00     0.165 HD
HETATM   32  H   UNK     0     -19.281 -10.615 -12.663  0.00  0.00     0.165 HD
ENDROOT
BRANCH   6  33
HETATM   33  C   UNK     0     -19.801 -12.288 -18.961  0.00  0.00     0.051 C 
BRANCH  33  34
HETATM   34  C   UNK     0     -18.660 -13.269 -19.085  0.00  0.00     0.114 C 
BRANCH  34  35
HETATM   35  C   UNK     0     -17.460 -12.505 -19.532  0.00  0.00     0.139 C 
HETATM   36  O   UNK     0     -17.265 -12.287 -20.763  0.00  0.00    -0.650 OA
BRANCH  35  37
HETATM   37  O   UNK     0     -16.518 -12.003 -18.643  0.00  0.00    -0.776 OA
HETATM   38  H   UNK     0     -15.577 -12.360 -18.603  0.00  0.00     0.167 HD
ENDBRANCH  35  37
ENDBRANCH  34  35
ENDBRANCH  33  34
ENDBRANCH   6  33
BRANCH  27  39
HETATM   39  C   UNK     0     -18.159 -14.846 -10.811  0.00  0.00     0.051 C 
BRANCH  39  40
HETATM   40  C   UNK     0     -17.862 -14.605  -9.399  0.00  0.00     0.114 C 
BRANCH  40  41
HETATM   41  C   UNK     0     -16.583 -14.938  -8.813  0.00  0.00     0.139 C 
HETATM   42  O   UNK     0     -16.087 -14.324  -7.859  0.00  0.00    -0.650 OA
BRANCH  41  43
HETATM   43  O   UNK     0     -15.840 -16.028  -9.350  0.00  0.00    -0.776 OA
HETATM   44  H   UNK     0     -16.330 -16.915  -9.339  0.00  0.00     0.167 HD
ENDBRANCH  41  43
ENDBRANCH  40  41
ENDBRANCH  39  40
ENDBRANCH  27  39
BRANCH  11  45
HETATM   45  C   UNK     0     -15.295  -6.368 -15.836  0.00  0.00     0.051 C 
BRANCH  45  46
HETATM   46  C   UNK     0     -15.644  -5.708 -14.552  0.00  0.00     0.114 C 
BRANCH  46  47
HETATM   47  C   UNK     0     -15.548  -4.236 -14.771  0.00  0.00     0.139 C 
HETATM   48  O   UNK     0     -15.561  -3.488 -13.783  0.00  0.00    -0.650 OA
BRANCH  47  49
HETATM   49  O   UNK     0     -15.447  -3.719 -16.038  0.00  0.00    -0.776 OA
HETATM   50  H   UNK     0     -15.711  -4.260 -16.870  0.00  0.00     0.167 HD
ENDBRANCH  47  49
ENDBRANCH  46  47
ENDBRANCH  45  46
ENDBRANCH  11  45
BRANCH  18  51
HETATM   51  C   UNK     0     -15.803  -9.351  -9.543  0.00  0.00     0.051 C 
BRANCH  51  52
HETATM   52  C   UNK     0     -16.976  -8.395  -9.392  0.00  0.00     0.114 C 
BRANCH  52  53
HETATM   53  C   UNK     0     -17.354  -8.207  -7.978  0.00  0.00     0.139 C 
HETATM   54  O   UNK     0     -16.665  -7.483  -7.242  0.00  0.00    -0.650 OA
BRANCH  53  55
HETATM   55  O   UNK     0     -18.467  -8.841  -7.482  0.00  0.00    -0.776 OA
HETATM   56  H   UNK     0     -18.628  -9.821  -7.477  0.00  0.00     0.167 HD
ENDBRANCH  53  55
ENDBRANCH  52  53
ENDBRANCH  51  52
ENDBRANCH  18  51
TORSDOF 16
ENDMDL
MODEL 7
REMARK VINA RESULT:      -9.1      2.618      6.900
REMARK  16 active torsions:
REMARK  status: ('A' for Active; 'I' for Inactive)
REMARK    1  A    between atoms: C_6  and  C_7 
REMARK    2  A    between atoms: C_7  and  C_8 
REMARK    3  A    between atoms: C_8  and  C_9 
REMARK    4  A    between atoms: C_9  and  O_11 
REMARK    5  A    between atoms: C_16  and  C_17 
REMARK    6  A    between atoms: C_17  and  C_18 
REMARK    7  A    between atoms: C_18  and  C_19 
REMARK    8  A    between atoms: C_19  and  O_21 
REMARK    9  A    between atoms: C_28  and  C_29 
REMARK   10  A    between atoms: C_29  and  C_30 
REMARK   11  A    between atoms: C_30  and  C_31 
REMARK   12  A    between atoms: C_31  and  O_33 
REMARK   13  A    between atoms: C_42  and  C_43 
REMARK   14  A    between atoms: C_43  and  C_44 
REMARK   15  A    between atoms: C_44  and  C_45 
REMARK   16  A    between atoms: C_45  and  O_47 
ROOT
HETATM    1  C   UNK     0     -15.465  -6.861 -15.954  0.00  0.00     0.051 C 
HETATM    2  C   UNK     0     -16.016  -8.228 -16.305  0.00  0.00    -0.031 A 
HETATM    3  C   UNK     0     -15.761  -9.456 -15.715  0.00  0.00     0.021 A 
HETATM    4  N   UNK     0     -16.451 -10.415 -16.378  0.00  0.00    -0.361 N 
HETATM    5  C   UNK     0     -17.146  -9.823 -17.371  0.00  0.00     0.022 A 
HETATM    6  C   UNK     0     -16.895  -8.455 -17.356  0.00  0.00    -0.027 A 
HETATM    7  C   UNK     0     -18.131 -10.418 -18.330  0.00  0.00     0.115 C 
HETATM    8  C   UNK     0     -19.127 -11.410 -17.756  0.00  0.00     0.021 A 
HETATM    9  N   UNK     0     -19.716 -11.400 -16.550  0.00  0.00    -0.361 N 
HETATM   10  C   UNK     0     -20.454 -12.525 -16.435  0.00  0.00     0.022 A 
HETATM   11  C   UNK     0     -20.344 -13.275 -17.603  0.00  0.00    -0.027 A 
HETATM   12  C   UNK     0     -19.510 -12.578 -18.439  0.00  0.00    -0.031 A 
HETATM   13  C   UNK     0     -19.104 -13.012 -19.830  0.00  0.00     0.051 C 
HETATM   14  C   UNK     0     -21.246 -12.962 -15.206  0.00  0.00     0.115 C 
HETATM   15  C   UNK     0     -20.392 -13.173 -13.966  0.00  0.00     0.021 A 
HETATM   16  N   UNK     0     -19.597 -12.275 -13.354  0.00  0.00    -0.361 N 
HETATM   17  C   UNK     0     -18.962 -12.871 -12.342  0.00  0.00     0.022 A 
HETATM   18  C   UNK     0     -19.371 -14.218 -12.286  0.00  0.00    -0.027 A 
HETATM   19  C   UNK     0     -20.267 -14.394 -13.308  0.00  0.00    -0.031 A 
HETATM   20  C   UNK     0     -20.983 -15.703 -13.585  0.00  0.00     0.051 C 
HETATM   21  C   UNK     0     -17.916 -12.326 -11.396  0.00  0.00     0.115 C 
HETATM   22  C   UNK     0     -16.946 -11.305 -11.942  0.00  0.00     0.022 A 
HETATM   23  N   UNK     0     -16.347 -11.287 -13.140  0.00  0.00    -0.361 N 
HETATM   24  C   UNK     0     -15.680 -10.122 -13.262  0.00  0.00     0.021 A 
HETATM   25  C   UNK     0     -15.845  -9.375 -12.111  0.00  0.00    -0.031 A 
HETATM   26  C   UNK     0     -15.260  -8.023 -11.760  0.00  0.00     0.051 C 
HETATM   27  C   UNK     0     -16.651 -10.112 -11.251  0.00  0.00    -0.027 A 
HETATM   28  C   UNK     0     -14.926  -9.605 -14.476  0.00  0.00     0.115 C 
HETATM   29  H   UNK     0     -16.411 -11.508 -16.164  0.00  0.00     0.165 HD
HETATM   30  H   UNK     0     -19.653 -10.577 -15.797  0.00  0.00     0.165 HD
HETATM   31  H   UNK     0     -19.517 -11.187 -13.611  0.00  0.00     0.165 HD
HETATM   32  H   UNK     0     -16.354 -12.117 -13.894  0.00  0.00     0.165 HD
ENDROOT
BRANCH   6  33
HETATM   33  C   UNK     0     -17.417  -7.363 -18.254  0.00  0.00     0.051 C 
BRANCH  33  34
HETATM   34  C   UNK     0     -16.442  -7.076 -19.371  0.00  0.00     0.114 C 
BRANCH  34  35
HETATM   35  C   UNK     0     -16.952  -7.760 -20.595  0.00  0.00     0.139 C 
HETATM   36  O   UNK     0     -18.198  -7.879 -20.785  0.00  0.00    -0.650 OA
BRANCH  35  37
HETATM   37  O   UNK     0     -16.109  -8.285 -21.566  0.00  0.00    -0.776 OA
HETATM   38  H   UNK     0     -15.856  -9.260 -21.583  0.00  0.00     0.167 HD
ENDBRANCH  35  37
ENDBRANCH  34  35
ENDBRANCH  33  34
ENDBRANCH   6  33
BRANCH  27  39
HETATM   39  C   UNK     0     -16.993  -9.661  -9.875  0.00  0.00     0.051 C 
BRANCH  39  40
HETATM   40  C   UNK     0     -16.163 -10.128  -8.765  0.00  0.00     0.114 C 
BRANCH  40  41
HETATM   41  C   UNK     0     -16.674 -11.009  -7.739  0.00  0.00     0.139 C 
HETATM   42  O   UNK     0     -16.086 -12.031  -7.360  0.00  0.00    -0.650 OA
BRANCH  41  43
HETATM   43  O   UNK     0     -17.919 -10.700  -7.120  0.00  0.00    -0.776 OA
HETATM   44  H   UNK     0     -17.896 -10.705  -6.107  0.00  0.00     0.167 HD
ENDBRANCH  41  43
ENDBRANCH  40  41
ENDBRANCH  39  40
ENDBRANCH  27  39
BRANCH  11  45
HETATM   45  C   UNK     0     -20.991 -14.591 -17.940  0.00  0.00     0.051 C 
BRANCH  45  46
HETATM   46  C   UNK     0     -20.226 -15.778 -17.479  0.00  0.00     0.114 C 
BRANCH  46  47
HETATM   47  C   UNK     0     -19.839 -16.553 -18.692  0.00  0.00     0.139 C 
HETATM   48  O   UNK     0     -19.155 -17.576 -18.548  0.00  0.00    -0.650 OA
BRANCH  47  49
HETATM   49  O   UNK     0     -20.230 -16.144 -19.942  0.00  0.00    -0.776 OA
HETATM   50  H   UNK     0     -20.850 -16.711 -20.532  0.00  0.00     0.167 HD
ENDBRANCH  47  49
ENDBRANCH  46  47
ENDBRANCH  45  46
ENDBRANCH  11  45
BRANCH  18  51
HETATM   51  C   UNK     0     -18.946 -15.274 -11.299  0.00  0.00     0.051 C 
BRANCH  51  52
HETATM   52  C   UNK     0     -19.699 -14.981 -10.010  0.00  0.00     0.114 C 
BRANCH  52  53
HETATM   53  C   UNK     0     -20.999 -15.676  -9.962  0.00  0.00     0.139 C 
HETATM   54  O   UNK     0     -21.072 -16.880 -10.255  0.00  0.00    -0.650 OA
BRANCH  53  55
HETATM   55  O   UNK     0     -22.127 -14.982  -9.596  0.00  0.00    -0.776 OA
HETATM   56  H   UNK     0     -22.683 -15.155  -8.792  0.00  0.00     0.167 HD
ENDBRANCH  53  55
ENDBRANCH  52  53
ENDBRANCH  51  52
ENDBRANCH  18  51
TORSDOF 16
ENDMDL
MODEL 8
REMARK VINA RESULT:      -9.0      2.667      9.735
REMARK  16 active torsions:
REMARK  status: ('A' for Active; 'I' for Inactive)
REMARK    1  A    between atoms: C_6  and  C_7 
REMARK    2  A    between atoms: C_7  and  C_8 
REMARK    3  A    between atoms: C_8  and  C_9 
REMARK    4  A    between atoms: C_9  and  O_11 
REMARK    5  A    between atoms: C_16  and  C_17 
REMARK    6  A    between atoms: C_17  and  C_18 
REMARK    7  A    between atoms: C_18  and  C_19 
REMARK    8  A    between atoms: C_19  and  O_21 
REMARK    9  A    between atoms: C_28  and  C_29 
REMARK   10  A    between atoms: C_29  and  C_30 
REMARK   11  A    between atoms: C_30  and  C_31 
REMARK   12  A    between atoms: C_31  and  O_33 
REMARK   13  A    between atoms: C_42  and  C_43 
REMARK   14  A    between atoms: C_43  and  C_44 
REMARK   15  A    between atoms: C_44  and  C_45 
REMARK   16  A    between atoms: C_45  and  O_47 
ROOT
HETATM    1  C   UNK     0     -16.156  -6.680 -13.253  0.00  0.00     0.051 C 
HETATM    2  C   UNK     0     -16.666  -7.644 -12.201  0.00  0.00    -0.031 A 
HETATM    3  C   UNK     0     -17.941  -8.159 -12.023  0.00  0.00     0.021 A 
HETATM    4  N   UNK     0     -17.944  -8.961 -10.932  0.00  0.00    -0.361 N 
HETATM    5  C   UNK     0     -16.698  -8.975 -10.416  0.00  0.00     0.022 A 
HETATM    6  C   UNK     0     -15.874  -8.159 -11.184  0.00  0.00    -0.027 A 
HETATM    7  C   UNK     0     -16.150  -9.772  -9.273  0.00  0.00     0.115 C 
HETATM    8  C   UNK     0     -16.573 -11.228  -9.193  0.00  0.00     0.021 A 
HETATM    9  N   UNK     0     -16.795 -12.091 -10.196  0.00  0.00    -0.361 N 
HETATM   10  C   UNK     0     -17.243 -13.248  -9.663  0.00  0.00     0.022 A 
HETATM   11  C   UNK     0     -17.302 -13.129  -8.278  0.00  0.00    -0.027 A 
HETATM   12  C   UNK     0     -16.882 -11.860  -7.975  0.00  0.00    -0.031 A 
HETATM   13  C   UNK     0     -16.777 -11.283  -6.580  0.00  0.00     0.051 C 
HETATM   14  C   UNK     0     -17.681 -14.487 -10.438  0.00  0.00     0.115 C 
HETATM   15  C   UNK     0     -18.856 -14.245 -11.372  0.00  0.00     0.021 A 
HETATM   16  N   UNK     0     -18.930 -13.367 -12.389  0.00  0.00    -0.361 N 
HETATM   17  C   UNK     0     -20.155 -13.411 -12.919  0.00  0.00     0.022 A 
HETATM   18  C   UNK     0     -20.912 -14.371 -12.219  0.00  0.00    -0.027 A 
HETATM   19  C   UNK     0     -20.087 -14.888 -11.254  0.00  0.00    -0.031 A 
HETATM   20  C   UNK     0     -20.499 -15.987 -10.293  0.00  0.00     0.051 C 
HETATM   21  C   UNK     0     -20.766 -12.580 -14.025  0.00  0.00     0.115 C 
HETATM   22  C   UNK     0     -20.320 -11.142 -14.144  0.00  0.00     0.022 A 
HETATM   23  N   UNK     0     -20.088 -10.261 -13.162  0.00  0.00    -0.361 N 
HETATM   24  C   UNK     0     -19.569  -9.143 -13.710  0.00  0.00     0.021 A 
HETATM   25  C   UNK     0     -19.475  -9.305 -15.079  0.00  0.00    -0.031 A 
HETATM   26  C   UNK     0     -18.995  -8.319 -16.124  0.00  0.00     0.051 C 
HETATM   27  C   UNK     0     -19.950 -10.576 -15.381  0.00  0.00    -0.027 A 
HETATM   28  C   UNK     0     -19.062  -7.905 -12.991  0.00  0.00     0.115 C 
HETATM   29  H   UNK     0     -18.837  -9.480 -10.512  0.00  0.00     0.165 HD
HETATM   30  H   UNK     0     -16.589 -11.904 -11.278  0.00  0.00     0.165 HD
HETATM   31  H   UNK     0     -18.087 -12.736 -12.773  0.00  0.00     0.165 HD
HETATM   32  H   UNK     0     -20.329 -10.403 -12.076  0.00  0.00     0.165 HD
ENDROOT
BRANCH   6  33
HETATM   33  C   UNK     0     -14.410  -7.835 -11.024  0.00  0.00     0.051 C 
BRANCH  33  34
HETATM   34  C   UNK     0     -14.226  -6.582 -10.201  0.00  0.00     0.114 C 
BRANCH  34  35
HETATM   35  C   UNK     0     -13.316  -6.921  -9.069  0.00  0.00     0.139 C 
HETATM   36  O   UNK     0     -13.790  -7.147  -7.917  0.00  0.00    -0.650 OA
BRANCH  35  37
HETATM   37  O   UNK     0     -11.937  -7.008  -9.216  0.00  0.00    -0.776 OA
HETATM   38  H   UNK     0     -11.395  -6.263  -9.623  0.00  0.00     0.167 HD
ENDBRANCH  35  37
ENDBRANCH  34  35
ENDBRANCH  33  34
ENDBRANCH   6  33
BRANCH  27  39
HETATM   39  C   UNK     0     -20.070 -11.087 -16.773  0.00  0.00     0.051 C 
BRANCH  39  40
HETATM   40  C   UNK     0     -21.410 -11.296 -17.322  0.00  0.00     0.114 C 
BRANCH  40  41
HETATM   41  C   UNK     0     -22.411 -10.253 -17.332  0.00  0.00     0.139 C 
HETATM   42  O   UNK     0     -22.826  -9.695 -16.308  0.00  0.00    -0.650 OA
BRANCH  41  43
HETATM   43  O   UNK     0     -22.958  -9.833 -18.577  0.00  0.00    -0.776 OA
HETATM   44  H   UNK     0     -22.867  -8.842 -18.762  0.00  0.00     0.167 HD
ENDBRANCH  41  43
ENDBRANCH  40  41
ENDBRANCH  39  40
ENDBRANCH  27  39
BRANCH  11  45
HETATM   45  C   UNK     0     -17.730 -14.155  -7.262  0.00  0.00     0.051 C 
BRANCH  45  46
HETATM   46  C   UNK     0     -16.691 -15.168  -6.948  0.00  0.00     0.114 C 
BRANCH  46  47
HETATM   47  C   UNK     0     -17.158 -16.469  -7.507  0.00  0.00     0.139 C 
HETATM   48  O   UNK     0     -18.264 -16.902  -7.153  0.00  0.00    -0.650 OA
BRANCH  47  49
HETATM   49  O   UNK     0     -16.383 -17.172  -8.393  0.00  0.00    -0.776 OA
HETATM   50  H   UNK     0     -16.762 -17.550  -9.270  0.00  0.00     0.167 HD
ENDBRANCH  47  49
ENDBRANCH  46  47
ENDBRANCH  45  46
ENDBRANCH  11  45
BRANCH  18  51
HETATM   51  C   UNK     0     -22.338 -14.789 -12.471  0.00  0.00     0.051 C 
BRANCH  51  52
HETATM   52  C   UNK     0     -23.136 -14.330 -11.261  0.00  0.00     0.114 C 
BRANCH  52  53
HETATM   53  C   UNK     0     -24.335 -13.563 -11.651  0.00  0.00     0.139 C 
HETATM   54  O   UNK     0     -25.253 -13.385 -10.835  0.00  0.00    -0.650 OA
BRANCH  53  55
HETATM   55  O   UNK     0     -24.429 -13.051 -12.923  0.00  0.00    -0.776 OA
HETATM   56  H   UNK     0     -24.680 -13.557 -13.739  0.00  0.00     0.167 HD
ENDBRANCH  53  55
ENDBRANCH  52  53
ENDBRANCH  51  52
ENDBRANCH  18  51
TORSDOF 16
ENDMDL
MODEL 9
REMARK VINA RESULT:      -9.0      3.074      7.891
REMARK  16 active torsions:
REMARK  status: ('A' for Active; 'I' for Inactive)
REMARK    1  A    between atoms: C_6  and  C_7 
REMARK    2  A    between atoms: C_7  and  C_8 
REMARK    3  A    between atoms: C_8  and  C_9 
REMARK    4  A    between atoms: C_9  and  O_11 
REMARK    5  A    between atoms: C_16  and  C_17 
REMARK    6  A    between atoms: C_17  and  C_18 
REMARK    7  A    between atoms: C_18  and  C_19 
REMARK    8  A    between atoms: C_19  and  O_21 
REMARK    9  A    between atoms: C_28  and  C_29 
REMARK   10  A    between atoms: C_29  and  C_30 
REMARK   11  A    between atoms: C_30  and  C_31 
REMARK   12  A    between atoms: C_31  and  O_33 
REMARK   13  A    between atoms: C_42  and  C_43 
REMARK   14  A    between atoms: C_43  and  C_44 
REMARK   15  A    between atoms: C_44  and  C_45 
REMARK   16  A    between atoms: C_45  and  O_47 
ROOT
HETATM    1  C   UNK     0     -17.806 -13.759  -7.077  0.00  0.00     0.051 C 
HETATM    2  C   UNK     0     -17.338 -12.847  -8.193  0.00  0.00    -0.031 A 
HETATM    3  C   UNK     0     -17.213 -13.108  -9.549  0.00  0.00     0.021 A 
HETATM    4  N   UNK     0     -16.727 -12.006 -10.168  0.00  0.00    -0.361 N 
HETATM    5  C   UNK     0     -16.548 -11.046  -9.237  0.00  0.00     0.022 A 
HETATM    6  C   UNK     0     -16.918 -11.539  -7.991  0.00  0.00    -0.027 A 
HETATM    7  C   UNK     0     -16.123  -9.621  -9.410  0.00  0.00     0.115 C 
HETATM    8  C   UNK     0     -16.736  -8.863 -10.574  0.00  0.00     0.021 A 
HETATM    9  N   UNK     0     -17.977  -8.961 -11.075  0.00  0.00    -0.361 N 
HETATM   10  C   UNK     0     -18.053  -8.169 -12.165  0.00  0.00     0.022 A 
HETATM   11  C   UNK     0     -16.830  -7.536 -12.367  0.00  0.00    -0.027 A 
HETATM   12  C   UNK     0     -15.996  -7.968 -11.368  0.00  0.00    -0.031 A 
HETATM   13  C   UNK     0     -14.558  -7.539 -11.183  0.00  0.00     0.051 C 
HETATM   14  C   UNK     0     -19.260  -8.018 -13.087  0.00  0.00     0.115 C 
HETATM   15  C   UNK     0     -19.680  -9.311 -13.768  0.00  0.00     0.021 A 
HETATM   16  N   UNK     0     -20.050 -10.465 -13.182  0.00  0.00    -0.361 N 
HETATM   17  C   UNK     0     -20.275 -11.383 -14.124  0.00  0.00     0.022 A 
HETATM   18  C   UNK     0     -20.050 -10.796 -15.385  0.00  0.00    -0.027 A 
HETATM   19  C   UNK     0     -19.679  -9.498 -15.149  0.00  0.00    -0.031 A 
HETATM   20  C   UNK     0     -19.377  -8.493 -16.245  0.00  0.00     0.051 C 
HETATM   21  C   UNK     0     -20.639 -12.844 -13.990  0.00  0.00     0.115 C 
HETATM   22  C   UNK     0     -20.071 -13.599 -12.812  0.00  0.00     0.022 A 
HETATM   23  N   UNK     0     -18.841 -13.519 -12.289  0.00  0.00    -0.361 N 
HETATM   24  C   UNK     0     -18.811 -14.255 -11.160  0.00  0.00     0.021 A 
HETATM   25  C   UNK     0     -20.050 -14.833 -10.956  0.00  0.00    -0.031 A 
HETATM   26  C   UNK     0     -20.495 -15.771  -9.854  0.00  0.00     0.051 C 
HETATM   27  C   UNK     0     -20.873 -14.428 -12.001  0.00  0.00    -0.027 A 
HETATM   28  C   UNK     0     -17.665 -14.398 -10.173  0.00  0.00     0.115 C 
HETATM   29  H   UNK     0     -16.476 -11.928 -11.251  0.00  0.00     0.165 HD
HETATM   30  H   UNK     0     -18.817  -9.550 -10.632  0.00  0.00     0.165 HD
HETATM   31  H   UNK     0     -20.201 -10.622 -12.082  0.00  0.00     0.165 HD
HETATM   32  H   UNK     0     -17.968 -12.975 -12.736  0.00  0.00     0.165 HD
ENDROOT
BRANCH   6  33
HETATM   33  C   UNK     0     -16.900 -10.872  -6.639  0.00  0.00     0.051 C 
BRANCH  33  34
HETATM   34  C   UNK     0     -17.547  -9.509  -6.707  0.00  0.00     0.114 C 
BRANCH  34  35
HETATM   35  C   UNK     0     -18.820  -9.580  -5.933  0.00  0.00     0.139 C 
HETATM   36  O   UNK     0     -19.469 -10.665  -5.872  0.00  0.00    -0.650 OA
BRANCH  35  37
HETATM   37  O   UNK     0     -19.346  -8.488  -5.253  0.00  0.00    -0.776 OA
HETATM   38  H   UNK     0     -20.023  -8.594  -4.514  0.00  0.00     0.167 HD
ENDBRANCH  35  37
ENDBRANCH  34  35
ENDBRANCH  33  34
ENDBRANCH   6  33
BRANCH  27  39
HETATM   39  C   UNK     0     -22.273 -14.907 -12.162  0.00  0.00     0.051 C 
BRANCH  39  40
HETATM   40  C   UNK     0     -23.363 -13.963 -11.917  0.00  0.00     0.114 C 
BRANCH  40  41
HETATM   41  C   UNK     0     -24.129 -13.972 -10.691  0.00  0.00     0.139 C 
HETATM   42  O   UNK     0     -23.699 -14.422  -9.620  0.00  0.00    -0.650 OA
BRANCH  41  43
HETATM   43  O   UNK     0     -25.449 -13.439 -10.697  0.00  0.00    -0.776 OA
HETATM   44  H   UNK     0     -25.936 -13.537 -11.580  0.00  0.00     0.167 HD
ENDBRANCH  41  43
ENDBRANCH  40  41
ENDBRANCH  39  40
ENDBRANCH  27  39
BRANCH  11  45
HETATM   45  C   UNK     0     -16.441  -6.559 -13.444  0.00  0.00     0.051 C 
BRANCH  45  46
HETATM   46  C   UNK     0     -15.785  -7.185 -14.620  0.00  0.00     0.114 C 
BRANCH  46  47
HETATM   47  C   UNK     0     -14.780  -6.210 -15.135  0.00  0.00     0.139 C 
HETATM   48  O   UNK     0     -13.799  -5.941 -14.427  0.00  0.00    -0.650 OA
BRANCH  47  49
HETATM   49  O   UNK     0     -14.936  -5.623 -16.365  0.00  0.00    -0.776 OA
HETATM   50  H   UNK     0     -15.123  -4.618 -16.469  0.00  0.00     0.167 HD
ENDBRANCH  47  49
ENDBRANCH  46  47
ENDBRANCH  45  46
ENDBRANCH  11  45
BRANCH  18  51
HETATM   51  C   UNK     0     -20.201 -11.432 -16.743  0.00  0.00     0.051 C 
BRANCH  51  52
HETATM   52  C   UNK     0     -21.675 -11.319 -17.105  0.00  0.00     0.114 C 
BRANCH  52  53
HETATM   53  C   UNK     0     -21.904 -10.330 -18.175  0.00  0.00     0.139 C 
HETATM   54  O   UNK     0     -20.971  -9.995 -18.922  0.00  0.00    -0.650 OA
BRANCH  53  55
HETATM   55  O   UNK     0     -23.153  -9.781 -18.337  0.00  0.00    -0.776 OA
HETATM   56  H   UNK     0     -23.595  -9.144 -17.718  0.00  0.00     0.167 HD
ENDBRANCH  53  55
ENDBRANCH  52  53
ENDBRANCH  51  52
ENDBRANCH  18  51
TORSDOF 16
ENDMDL
MODEL 10
REMARK VINA RESULT:      -8.6      3.007      4.417
REMARK  16 active torsions:
REMARK  status: ('A' for Active; 'I' for Inactive)
REMARK    1  A    between atoms: C_6  and  C_7 
REMARK    2  A    between atoms: C_7  and  C_8 
REMARK    3  A    between atoms: C_8  and  C_9 
REMARK    4  A    between atoms: C_9  and  O_11 
REMARK    5  A    between atoms: C_16  and  C_17 
REMARK    6  A    between atoms: C_17  and  C_18 
REMARK    7  A    between atoms: C_18  and  C_19 
REMARK    8  A    between atoms: C_19  and  O_21 
REMARK    9  A    between atoms: C_28  and  C_29 
REMARK   10  A    between atoms: C_29  and  C_30 
REMARK   11  A    between atoms: C_30  and  C_31 
REMARK   12  A    between atoms: C_31  and  O_33 
REMARK   13  A    between atoms: C_42  and  C_43 
REMARK   14  A    between atoms: C_43  and  C_44 
REMARK   15  A    between atoms: C_44  and  C_45 
REMARK   16  A    between atoms: C_45  and  O_47 
ROOT
HETATM    1  C   UNK     0     -21.130 -12.502 -16.929  0.00  0.00     0.051 C 
HETATM    2  C   UNK     0     -20.449 -11.219 -16.500  0.00  0.00    -0.031 A 
HETATM    3  C   UNK     0     -20.351 -10.655 -15.237  0.00  0.00     0.021 A 
HETATM    4  N   UNK     0     -19.676  -9.484 -15.329  0.00  0.00    -0.361 N 
HETATM    5  C   UNK     0     -19.335  -9.294 -16.620  0.00  0.00     0.022 A 
HETATM    6  C   UNK     0     -19.805 -10.360 -17.380  0.00  0.00    -0.027 A 
HETATM    7  C   UNK     0     -18.506  -8.211 -17.236  0.00  0.00     0.115 C 
HETATM    8  C   UNK     0     -17.252  -7.800 -16.484  0.00  0.00     0.021 A 
HETATM    9  N   UNK     0     -16.416  -8.570 -15.770  0.00  0.00    -0.361 N 
HETATM   10  C   UNK     0     -15.491  -7.768 -15.201  0.00  0.00     0.022 A 
HETATM   11  C   UNK     0     -15.732  -6.447 -15.566  0.00  0.00    -0.027 A 
HETATM   12  C   UNK     0     -16.840  -6.460 -16.374  0.00  0.00    -0.031 A 
HETATM   13  C   UNK     0     -17.470  -5.243 -17.015  0.00  0.00     0.051 C 
HETATM   14  C   UNK     0     -14.379  -8.206 -14.252  0.00  0.00     0.115 C 
HETATM   15  C   UNK     0     -14.883  -8.849 -12.969  0.00  0.00     0.021 A 
HETATM   16  N   UNK     0     -15.659  -9.941 -12.847  0.00  0.00    -0.361 N 
HETATM   17  C   UNK     0     -15.938 -10.140 -11.557  0.00  0.00     0.022 A 
HETATM   18  C   UNK     0     -15.305  -9.134 -10.801  0.00  0.00    -0.027 A 
HETATM   19  C   UNK     0     -14.646  -8.332 -11.697  0.00  0.00    -0.031 A 
HETATM   20  C   UNK     0     -13.799  -7.138 -11.297  0.00  0.00     0.051 C 
HETATM   21  C   UNK     0     -16.820 -11.178 -10.902  0.00  0.00     0.115 C 
HETATM   22  C   UNK     0     -18.048 -11.628 -11.659  0.00  0.00     0.022 A 
HETATM   23  N   UNK     0     -18.896 -10.885 -12.381  0.00  0.00    -0.361 N 
HETATM   24  C   UNK     0     -19.762 -11.712 -13.001  0.00  0.00     0.021 A 
HETATM   25  C   UNK     0     -19.470 -13.019 -12.662  0.00  0.00    -0.031 A 
HETATM   26  C   UNK     0     -20.182 -14.292 -13.071  0.00  0.00     0.051 C 
HETATM   27  C   UNK     0     -18.377 -12.991 -11.803  0.00  0.00    -0.027 A 
HETATM   28  C   UNK     0     -20.847 -11.344 -13.998  0.00  0.00     0.115 C 
HETATM   29  H   UNK     0     -19.481  -8.781 -14.486  0.00  0.00     0.165 HD
HETATM   30  H   UNK     0     -16.446  -9.685 -15.706  0.00  0.00     0.165 HD
HETATM   31  H   UNK     0     -15.979 -10.615 -13.685  0.00  0.00     0.165 HD
HETATM   32  H   UNK     0     -18.919  -9.765 -12.426  0.00  0.00     0.165 HD
ENDROOT
BRANCH   6  33
HETATM   33  C   UNK     0     -19.692 -10.618 -18.862  0.00  0.00     0.051 C 
BRANCH  33  34
HETATM   34  C   UNK     0     -20.867 -10.022 -19.600  0.00  0.00     0.114 C 
BRANCH  34  35
HETATM   35  C   UNK     0     -20.320  -9.141 -20.671  0.00  0.00     0.139 C 
HETATM   36  O   UNK     0     -20.971  -8.961 -21.742  0.00  0.00    -0.650 OA
BRANCH  35  37
HETATM   37  O   UNK     0     -19.100  -8.486 -20.553  0.00  0.00    -0.776 OA
HETATM   38  H   UNK     0     -18.960  -7.550 -20.899  0.00  0.00     0.167 HD
ENDBRANCH  35  37
ENDBRANCH  34  35
ENDBRANCH  33  34
ENDBRANCH   6  33
BRANCH  27  39
HETATM   39  C   UNK     0     -17.815 -14.213 -11.166  0.00  0.00     0.051 C 
BRANCH  39  40
HETATM   40  C   UNK     0     -18.261 -14.560  -9.817  0.00  0.00     0.114 C 
BRANCH  40  41
HETATM   41  C   UNK     0     -19.414 -15.400  -9.579  0.00  0.00     0.139 C 
HETATM   42  O   UNK     0     -19.336 -16.606  -9.310  0.00  0.00    -0.650 OA
BRANCH  41  43
HETATM   43  O   UNK     0     -20.714 -14.826  -9.655  0.00  0.00    -0.776 OA
HETATM   44  H   UNK     0     -21.235 -14.852  -8.786  0.00  0.00     0.167 HD
ENDBRANCH  41  43
ENDBRANCH  40  41
ENDBRANCH  39  40
ENDBRANCH  27  39
BRANCH  11  45
HETATM   45  C   UNK     0     -14.965  -5.209 -15.185  0.00  0.00     0.051 C 
BRANCH  45  46
HETATM   46  C   UNK     0     -15.533  -4.478 -14.024  0.00  0.00     0.114 C 
BRANCH  46  47
HETATM   47  C   UNK     0     -15.456  -3.022 -14.339  0.00  0.00     0.139 C 
HETATM   48  O   UNK     0     -16.439  -2.310 -14.090  0.00  0.00    -0.650 OA
BRANCH  47  49
HETATM   49  O   UNK     0     -14.324  -2.482 -14.894  0.00  0.00    -0.776 OA
HETATM   50  H   UNK     0     -13.383  -2.736 -14.570  0.00  0.00     0.167 HD
ENDBRANCH  47  49
ENDBRANCH  46  47
ENDBRANCH  45  46
ENDBRANCH  11  45
BRANCH  18  51
HETATM   51  C   UNK     0     -15.309  -8.958  -9.304  0.00  0.00     0.051 C 
BRANCH  51  52
HETATM   52  C   UNK     0     -16.501  -8.069  -8.983  0.00  0.00     0.114 C 
BRANCH  52  53
HETATM   53  C   UNK     0     -17.129  -8.434  -7.699  0.00  0.00     0.139 C 
HETATM   54  O   UNK     0     -16.477  -8.362  -6.645  0.00  0.00    -0.650 OA
BRANCH  53  55
HETATM   55  O   UNK     0     -18.437  -8.855  -7.677  0.00  0.00    -0.776 OA
HETATM   56  H   UNK     0     -19.164  -8.474  -7.120  0.00  0.00     0.167 HD
ENDBRANCH  53  55
ENDBRANCH  52  53
ENDBRANCH  51  52
ENDBRANCH  18  51
TORSDOF 16
ENDMDL
MODEL 11
REMARK VINA RESULT:      -8.4      3.011      8.054
REMARK  16 active torsions:
REMARK  status: ('A' for Active; 'I' for Inactive)
REMARK    1  A    between atoms: C_6  and  C_7 
REMARK    2  A    between atoms: C_7  and  C_8 
REMARK    3  A    between atoms: C_8  and  C_9 
REMARK    4  A    between atoms: C_9  and  O_11 
REMARK    5  A    between atoms: C_16  and  C_17 
REMARK    6  A    between atoms: C_17  and  C_18 
REMARK    7  A    between atoms: C_18  and  C_19 
REMARK    8  A    between atoms: C_19  and  O_21 
REMARK    9  A    between atoms: C_28  and  C_29 
REMARK   10  A    between atoms: C_29  and  C_30 
REMARK   11  A    between atoms: C_30  and  C_31 
REMARK   12  A    between atoms: C_31  and  O_33 
REMARK   13  A    between atoms: C_42  and  C_43 
REMARK   14  A    between atoms: C_43  and  C_44 
REMARK   15  A    between atoms: C_44  and  C_45 
REMARK   16  A    between atoms: C_45  and  O_47 
ROOT
HETATM    1  C   UNK     0     -17.644 -12.839  -6.584  0.00  0.00     0.051 C 
HETATM    2  C   UNK     0     -17.152 -11.997  -7.744  0.00  0.00    -0.031 A 
HETATM    3  C   UNK     0     -16.841 -12.380  -9.038  0.00  0.00     0.021 A 
HETATM    4  N   UNK     0     -16.410 -11.297  -9.728  0.00  0.00    -0.361 N 
HETATM    5  C   UNK     0     -16.448 -10.230  -8.903  0.00  0.00     0.022 A 
HETATM    6  C   UNK     0     -16.906 -10.633  -7.652  0.00  0.00    -0.027 A 
HETATM    7  C   UNK     0     -16.166  -8.790  -9.195  0.00  0.00     0.115 C 
HETATM    8  C   UNK     0     -16.718  -8.238 -10.498  0.00  0.00     0.021 A 
HETATM    9  N   UNK     0     -17.873  -8.539 -11.111  0.00  0.00    -0.361 N 
HETATM   10  C   UNK     0     -17.908  -7.880 -12.288  0.00  0.00     0.022 A 
HETATM   11  C   UNK     0     -16.747  -7.126 -12.433  0.00  0.00    -0.027 A 
HETATM   12  C   UNK     0     -15.993  -7.347 -11.309  0.00  0.00    -0.031 A 
HETATM   13  C   UNK     0     -14.643  -6.727 -11.026  0.00  0.00     0.051 C 
HETATM   14  C   UNK     0     -19.006  -7.975 -13.343  0.00  0.00     0.115 C 
HETATM   15  C   UNK     0     -19.198  -9.373 -13.908  0.00  0.00     0.021 A 
HETATM   16  N   UNK     0     -19.505 -10.497 -13.232  0.00  0.00    -0.361 N 
HETATM   17  C   UNK     0     -19.514 -11.529 -14.079  0.00  0.00     0.022 A 
HETATM   18  C   UNK     0     -19.209 -11.053 -15.370  0.00  0.00    -0.027 A 
HETATM   19  C   UNK     0     -19.015  -9.702 -15.249  0.00  0.00    -0.031 A 
HETATM   20  C   UNK     0     -18.698  -8.787 -16.418  0.00  0.00     0.051 C 
HETATM   21  C   UNK     0     -19.728 -13.002 -13.814  0.00  0.00     0.115 C 
HETATM   22  C   UNK     0     -19.223 -13.555 -12.502  0.00  0.00     0.022 A 
HETATM   23  N   UNK     0     -18.079 -13.270 -11.867  0.00  0.00    -0.361 N 
HETATM   24  C   UNK     0     -18.101 -13.876 -10.663  0.00  0.00     0.021 A 
HETATM   25  C   UNK     0     -19.284 -14.577 -10.524  0.00  0.00    -0.031 A 
HETATM   26  C   UNK     0     -19.749 -15.443  -9.372  0.00  0.00     0.051 C 
HETATM   27  C   UNK     0     -20.019 -14.387 -11.689  0.00  0.00    -0.027 A 
HETATM   28  C   UNK     0     -17.071 -13.774  -9.551  0.00  0.00     0.115 C 
HETATM   29  H   UNK     0     -16.044 -11.301 -10.780  0.00  0.00     0.165 HD
HETATM   30  H   UNK     0     -18.689  -9.178 -10.693  0.00  0.00     0.165 HD
HETATM   31  H   UNK     0     -19.766 -10.557 -12.144  0.00  0.00     0.165 HD
HETATM   32  H   UNK     0     -17.225 -12.673 -12.281  0.00  0.00     0.165 HD
ENDROOT
BRANCH   6  33
HETATM   33  C   UNK     0     -17.121  -9.832  -6.394  0.00  0.00     0.051 C 
BRANCH  33  34
HETATM   34  C   UNK     0     -15.801  -9.500  -5.738  0.00  0.00     0.114 C 
BRANCH  34  35
HETATM   35  C   UNK     0     -15.789  -8.031  -5.478  0.00  0.00     0.139 C 
HETATM   36  O   UNK     0     -14.831  -7.318  -5.899  0.00  0.00    -0.650 OA
BRANCH  35  37
HETATM   37  O   UNK     0     -16.802  -7.385  -4.782  0.00  0.00    -0.776 OA
HETATM   38  H   UNK     0     -17.401  -7.873  -4.135  0.00  0.00     0.167 HD
ENDBRANCH  35  37
ENDBRANCH  34  35
ENDBRANCH  33  34
ENDBRANCH   6  33
BRANCH  27  39
HETATM   39  C   UNK     0     -21.328 -15.049 -11.939  0.00  0.00     0.051 C 
BRANCH  39  40
HETATM   40  C   UNK     0     -22.342 -14.317 -12.697  0.00  0.00     0.114 C 
BRANCH  40  41
HETATM   41  C   UNK     0     -23.574 -13.860 -12.095  0.00  0.00     0.139 C 
HETATM   42  O   UNK     0     -23.920 -14.150 -10.941  0.00  0.00    -0.650 OA
BRANCH  41  43
HETATM   43  O   UNK     0     -24.448 -13.031 -12.853  0.00  0.00    -0.776 OA
HETATM   44  H   UNK     0     -25.378 -12.935 -12.463  0.00  0.00     0.167 HD
ENDBRANCH  41  43
ENDBRANCH  40  41
ENDBRANCH  39  40
ENDBRANCH  27  39
BRANCH  11  45
HETATM   45  C   UNK     0     -16.344  -6.226 -13.571  0.00  0.00     0.051 C 
BRANCH  45  46
HETATM   46  C   UNK     0     -15.639  -6.925 -14.676  0.00  0.00     0.114 C 
BRANCH  46  47
HETATM   47  C   UNK     0     -14.234  -6.426 -14.688  0.00  0.00     0.139 C 
HETATM   48  O   UNK     0     -13.331  -7.189 -14.317  0.00  0.00    -0.650 OA
BRANCH  47  49
HETATM   49  O   UNK     0     -13.945  -5.149 -15.099  0.00  0.00    -0.776 OA
HETATM   50  H   UNK     0     -13.331  -4.961 -15.901  0.00  0.00     0.167 HD
ENDBRANCH  47  49
ENDBRANCH  46  47
ENDBRANCH  45  46
ENDBRANCH  11  45
BRANCH  18  51
HETATM   51  C   UNK     0     -19.128 -11.840 -16.652  0.00  0.00     0.051 C 
BRANCH  51  52
HETATM   52  C   UNK     0     -17.701 -12.359 -16.744  0.00  0.00     0.114 C 
BRANCH  52  53
HETATM   53  C   UNK     0     -17.118 -12.130 -18.081  0.00  0.00     0.139 C 
HETATM   54  O   UNK     0     -16.057 -11.496 -18.196  0.00  0.00    -0.650 OA
BRANCH  53  55
HETATM   55  O   UNK     0     -17.757 -12.619 -19.194  0.00  0.00    -0.776 OA
HETATM   56  H   UNK     0     -18.613 -12.285 -19.570  0.00  0.00     0.167 HD
ENDBRANCH  53  55
ENDBRANCH  52  53
ENDBRANCH  51  52
ENDBRANCH  18  51
TORSDOF 16
ENDMDL
MODEL 12
REMARK VINA RESULT:      -8.4      2.621      7.198
REMARK  16 active torsions:
REMARK  status: ('A' for Active; 'I' for Inactive)
REMARK    1  A    between atoms: C_6  and  C_7 
REMARK    2  A    between atoms: C_7  and  C_8 
REMARK    3  A    between atoms: C_8  and  C_9 
REMARK    4  A    between atoms: C_9  and  O_11 
REMARK    5  A    between atoms: C_16  and  C_17 
REMARK    6  A    between atoms: C_17  and  C_18 
REMARK    7  A    between atoms: C_18  and  C_19 
REMARK    8  A    between atoms: C_19  and  O_21 
REMARK    9  A    between atoms: C_28  and  C_29 
REMARK   10  A    between atoms: C_29  and  C_30 
REMARK   11  A    between atoms: C_30  and  C_31 
REMARK   12  A    between atoms: C_31  and  O_33 
REMARK   13  A    between atoms: C_42  and  C_43 
REMARK   14  A    between atoms: C_43  and  C_44 
REMARK   15  A    between atoms: C_44  and  C_45 
REMARK   16  A    between atoms: C_45  and  O_47 
ROOT
HETATM    1  C   UNK     0     -14.970  -5.219 -15.101  0.00  0.00     0.051 C 
HETATM    2  C   UNK     0     -15.561  -6.545 -15.535  0.00  0.00    -0.031 A 
HETATM    3  C   UNK     0     -15.230  -7.829 -15.133  0.00  0.00     0.021 A 
HETATM    4  N   UNK     0     -15.999  -8.715 -15.808  0.00  0.00    -0.361 N 
HETATM    5  C   UNK     0     -16.819  -8.023 -16.626  0.00  0.00     0.022 A 
HETATM    6  C   UNK     0     -16.569  -6.663 -16.483  0.00  0.00    -0.027 A 
HETATM    7  C   UNK     0     -17.920  -8.518 -17.511  0.00  0.00     0.115 C 
HETATM    8  C   UNK     0     -18.831  -9.587 -16.933  0.00  0.00     0.021 A 
HETATM    9  N   UNK     0     -19.257  -9.728 -15.669  0.00  0.00    -0.361 N 
HETATM   10  C   UNK     0     -19.973 -10.870 -15.592  0.00  0.00     0.022 A 
HETATM   11  C   UNK     0     -20.016 -11.477 -16.844  0.00  0.00    -0.027 A 
HETATM   12  C   UNK     0     -19.299 -10.674 -17.693  0.00  0.00    -0.031 A 
HETATM   13  C   UNK     0     -19.079 -10.936 -19.166  0.00  0.00     0.051 C 
HETATM   14  C   UNK     0     -20.596 -11.460 -14.330  0.00  0.00     0.115 C 
HETATM   15  C   UNK     0     -19.587 -11.800 -13.246  0.00  0.00     0.021 A 
HETATM   16  N   UNK     0     -18.719 -10.967 -12.640  0.00  0.00    -0.361 N 
HETATM   17  C   UNK     0     -17.957 -11.665 -11.796  0.00  0.00     0.022 A 
HETATM   18  C   UNK     0     -18.353 -13.016 -11.846  0.00  0.00    -0.027 A 
HETATM   19  C   UNK     0     -19.375 -13.087 -12.757  0.00  0.00    -0.031 A 
HETATM   20  C   UNK     0     -20.120 -14.367 -13.091  0.00  0.00     0.051 C 
HETATM   21  C   UNK     0     -16.796 -11.217 -10.937  0.00  0.00     0.115 C 
HETATM   22  C   UNK     0     -15.907 -10.123 -11.481  0.00  0.00     0.022 A 
HETATM   23  N   UNK     0     -15.470  -9.956 -12.736  0.00  0.00    -0.361 N 
HETATM   24  C   UNK     0     -14.827  -8.774 -12.807  0.00  0.00     0.021 A 
HETATM   25  C   UNK     0     -14.840  -8.169 -11.564  0.00  0.00    -0.031 A 
HETATM   26  C   UNK     0     -14.216  -6.858 -11.135  0.00  0.00     0.051 C 
HETATM   27  C   UNK     0     -15.526  -9.014 -10.699  0.00  0.00    -0.027 A 
HETATM   28  C   UNK     0     -14.238  -8.107 -14.038  0.00  0.00     0.115 C 
HETATM   29  H   UNK     0     -15.930  -9.825 -15.732  0.00  0.00     0.165 HD
HETATM   30  H   UNK     0     -19.097  -8.997 -14.838  0.00  0.00     0.165 HD
HETATM   31  H   UNK     0     -18.675  -9.855 -12.776  0.00  0.00     0.165 HD
HETATM   32  H   UNK     0     -15.575 -10.692 -13.575  0.00  0.00     0.165 HD
ENDROOT
BRANCH   6  33
HETATM   33  C   UNK     0     -17.206  -5.482 -17.170  0.00  0.00     0.051 C 
BRANCH  33  34
HETATM   34  C   UNK     0     -16.438  -5.109 -18.416  0.00  0.00     0.114 C 
BRANCH  34  35
HETATM   35  C   UNK     0     -17.296  -4.184 -19.210  0.00  0.00     0.139 C 
HETATM   36  O   UNK     0     -18.128  -4.646 -20.045  0.00  0.00    -0.650 OA
BRANCH  35  37
HETATM   37  O   UNK     0     -17.232  -2.802 -19.078  0.00  0.00    -0.776 OA
HETATM   38  H   UNK     0     -18.034  -2.213 -19.229  0.00  0.00     0.167 HD
ENDBRANCH  35  37
ENDBRANCH  34  35
ENDBRANCH  33  34
ENDBRANCH   6  33
BRANCH  27  39
HETATM   39  C   UNK     0     -15.685  -8.732  -9.247  0.00  0.00     0.051 C 
BRANCH  39  40
HETATM   40  C   UNK     0     -16.884  -8.020  -8.805  0.00  0.00     0.114 C 
BRANCH  40  41
HETATM   41  C   UNK     0     -17.460  -8.219  -7.494  0.00  0.00     0.139 C 
HETATM   42  O   UNK     0     -16.920  -7.839  -6.446  0.00  0.00    -0.650 OA
BRANCH  41  43
HETATM   43  O   UNK     0     -18.713  -8.886  -7.384  0.00  0.00    -0.776 OA
HETATM   44  H   UNK     0     -18.727  -9.643  -6.711  0.00  0.00     0.167 HD
ENDBRANCH  41  43
ENDBRANCH  40  41
ENDBRANCH  39  40
ENDBRANCH  27  39
BRANCH  11  45
HETATM   45  C   UNK     0     -20.700 -12.756 -17.247  0.00  0.00     0.051 C 
BRANCH  45  46
HETATM   46  C   UNK     0     -19.871 -13.973 -17.054  0.00  0.00     0.114 C 
BRANCH  46  47
HETATM   47  C   UNK     0     -19.924 -14.750 -18.325  0.00  0.00     0.139 C 
HETATM   48  O   UNK     0     -20.743 -15.674 -18.421  0.00  0.00    -0.650 OA
BRANCH  47  49
HETATM   49  O   UNK     0     -19.083 -14.450 -19.368  0.00  0.00    -0.776 OA
HETATM   50  H   UNK     0     -18.844 -13.482 -19.614  0.00  0.00     0.167 HD
ENDBRANCH  47  49
ENDBRANCH  46  47
ENDBRANCH  45  46
ENDBRANCH  11  45
BRANCH  18  51
HETATM   51  C   UNK     0     -17.801 -14.173 -11.054  0.00  0.00     0.051 C 
BRANCH  51  52
HETATM   52  C   UNK     0     -18.479 -14.119  -9.693  0.00  0.00     0.114 C 
BRANCH  52  53
HETATM   53  C   UNK     0     -17.500 -13.982  -8.597  0.00  0.00     0.139 C 
HETATM   54  O   UNK     0     -16.673 -14.883  -8.386  0.00  0.00    -0.650 OA
BRANCH  53  55
HETATM   55  O   UNK     0     -17.513 -12.855  -7.812  0.00  0.00    -0.776 OA
HETATM   56  H   UNK     0     -17.919 -11.981  -8.051  0.00  0.00     0.167 HD
ENDBRANCH  53  55
ENDBRANCH  52  53
ENDBRANCH  51  52
ENDBRANCH  18  51
TORSDOF 16
ENDMDL
MODEL 13
REMARK VINA RESULT:      -8.3      3.885      7.682
REMARK  16 active torsions:
REMARK  status: ('A' for Active; 'I' for Inactive)
REMARK    1  A    between atoms: C_6  and  C_7 
REMARK    2  A    between atoms: C_7  and  C_8 
REMARK    3  A    between atoms: C_8  and  C_9 
REMARK    4  A    between atoms: C_9  and  O_11 
REMARK    5  A    between atoms: C_16  and  C_17 
REMARK    6  A    between atoms: C_17  and  C_18 
REMARK    7  A    between atoms: C_18  and  C_19 
REMARK    8  A    between atoms: C_19  and  O_21 
REMARK    9  A    between atoms: C_28  and  C_29 
REMARK   10  A    between atoms: C_29  and  C_30 
REMARK   11  A    between atoms: C_30  and  C_31 
REMARK   12  A    between atoms: C_31  and  O_33 
REMARK   13  A    between atoms: C_42  and  C_43 
REMARK   14  A    between atoms: C_43  and  C_44 
REMARK   15  A    between atoms: C_44  and  C_45 
REMARK   16  A    between atoms: C_45  and  O_47 
ROOT
HETATM    1  C   UNK     0     -17.384  -8.734 -16.384  0.00  0.00     0.051 C 
HETATM    2  C   UNK     0     -17.172  -7.847 -15.174  0.00  0.00    -0.031 A 
HETATM    3  C   UNK     0     -17.729  -7.938 -13.908  0.00  0.00     0.021 A 
HETATM    4  N   UNK     0     -17.277  -6.910 -13.152  0.00  0.00    -0.361 N 
HETATM    5  C   UNK     0     -16.438  -6.170 -13.906  0.00  0.00     0.022 A 
HETATM    6  C   UNK     0     -16.352  -6.726 -15.178  0.00  0.00    -0.027 A 
HETATM    7  C   UNK     0     -15.605  -4.986 -13.522  0.00  0.00     0.115 C 
HETATM    8  C   UNK     0     -14.892  -5.061 -12.184  0.00  0.00     0.021 A 
HETATM    9  N   UNK     0     -14.344  -6.131 -11.586  0.00  0.00    -0.361 N 
HETATM   10  C   UNK     0     -13.902  -5.751 -10.369  0.00  0.00     0.022 A 
HETATM   11  C   UNK     0     -14.164  -4.397 -10.180  0.00  0.00    -0.027 A 
HETATM   12  C   UNK     0     -14.787  -3.956 -11.320  0.00  0.00    -0.031 A 
HETATM   13  C   UNK     0     -15.255  -2.540 -11.568  0.00  0.00     0.051 C 
HETATM   14  C   UNK     0     -13.266  -6.657  -9.318  0.00  0.00     0.115 C 
HETATM   15  C   UNK     0     -14.173  -7.781  -8.844  0.00  0.00     0.021 A 
HETATM   16  N   UNK     0     -14.741  -8.748  -9.589  0.00  0.00    -0.361 N 
HETATM   17  C   UNK     0     -15.523  -9.499  -8.811  0.00  0.00     0.022 A 
HETATM   18  C   UNK     0     -15.453  -9.005  -7.493  0.00  0.00    -0.027 A 
HETATM   19  C   UNK     0     -14.604  -7.929  -7.527  0.00  0.00    -0.031 A 
HETATM   20  C   UNK     0     -14.219  -7.119  -6.303  0.00  0.00     0.051 C 
HETATM   21  C   UNK     0     -16.427 -10.657  -9.170  0.00  0.00     0.115 C 
HETATM   22  C   UNK     0     -17.109 -10.617 -10.517  0.00  0.00     0.022 A 
HETATM   23  N   UNK     0     -17.660  -9.565 -11.138  0.00  0.00    -0.361 N 
HETATM   24  C   UNK     0     -18.023  -9.948 -12.379  0.00  0.00     0.021 A 
HETATM   25  C   UNK     0     -17.707 -11.282 -12.558  0.00  0.00    -0.031 A 
HETATM   26  C   UNK     0     -17.956 -12.167 -13.761  0.00  0.00     0.051 C 
HETATM   27  C   UNK     0     -17.122 -11.732 -11.380  0.00  0.00    -0.027 A 
HETATM   28  C   UNK     0     -18.603  -9.085 -13.485  0.00  0.00     0.115 C 
HETATM   29  H   UNK     0     -17.585  -6.691 -12.103  0.00  0.00     0.165 HD
HETATM   30  H   UNK     0     -14.223  -7.144 -12.042  0.00  0.00     0.165 HD
HETATM   31  H   UNK     0     -14.550  -8.933 -10.678  0.00  0.00     0.165 HD
HETATM   32  H   UNK     0     -17.837  -8.553 -10.690  0.00  0.00     0.165 HD
ENDROOT
BRANCH   6  33
HETATM   33  C   UNK     0     -15.561  -6.279 -16.381  0.00  0.00     0.051 C 
BRANCH  33  34
HETATM   34  C   UNK     0     -16.329  -5.247 -17.172  0.00  0.00     0.114 C 
BRANCH  34  35
HETATM   35  C   UNK     0     -16.522  -5.791 -18.547  0.00  0.00     0.139 C 
HETATM   36  O   UNK     0     -17.397  -5.292 -19.313  0.00  0.00    -0.650 OA
BRANCH  35  37
HETATM   37  O   UNK     0     -15.768  -6.845 -19.048  0.00  0.00    -0.776 OA
HETATM   38  H   UNK     0     -15.101  -7.342 -18.481  0.00  0.00     0.167 HD
ENDBRANCH  35  37
ENDBRANCH  34  35
ENDBRANCH  33  34
ENDBRANCH   6  33
BRANCH  27  39
HETATM   39  C   UNK     0     -16.711 -13.146 -11.167  0.00  0.00     0.051 C 
BRANCH  39  40
HETATM   40  C   UNK     0     -17.596 -14.017 -10.394  0.00  0.00     0.114 C 
BRANCH  40  41
HETATM   41  C   UNK     0     -17.381 -14.282  -8.989  0.00  0.00     0.139 C 
HETATM   42  O   UNK     0     -16.265 -14.267  -8.454  0.00  0.00    -0.650 OA
BRANCH  41  43
HETATM   43  O   UNK     0     -18.502 -14.579  -8.163  0.00  0.00    -0.776 OA
HETATM   44  H   UNK     0     -18.977 -13.764  -7.792  0.00  0.00     0.167 HD
ENDBRANCH  41  43
ENDBRANCH  40  41
ENDBRANCH  39  40
ENDBRANCH  27  39
BRANCH  11  45
HETATM   45  C   UNK     0     -13.848  -3.534  -8.988  0.00  0.00     0.051 C 
BRANCH  45  46
HETATM   46  C   UNK     0     -12.558  -2.805  -9.093  0.00  0.00     0.114 C 
BRANCH  46  47
HETATM   47  C   UNK     0     -11.671  -3.320  -8.011  0.00  0.00     0.139 C 
HETATM   48  O   UNK     0     -12.192  -3.742  -6.969  0.00  0.00    -0.650 OA
BRANCH  47  49
HETATM   49  O   UNK     0     -10.307  -3.325  -8.162  0.00  0.00    -0.776 OA
HETATM   50  H   UNK     0      -9.862  -3.438  -9.081  0.00  0.00     0.167 HD
ENDBRANCH  47  49
ENDBRANCH  46  47
ENDBRANCH  45  46
ENDBRANCH  11  45
BRANCH  18  51
HETATM   51  C   UNK     0     -16.142  -9.541  -6.265  0.00  0.00     0.051 C 
BRANCH  51  52
HETATM   52  C   UNK     0     -17.220  -8.529  -5.905  0.00  0.00     0.114 C 
BRANCH  52  53
HETATM   53  C   UNK     0     -18.569  -9.014  -6.258  0.00  0.00     0.139 C 
HETATM   54  O   UNK     0     -19.519  -8.218  -6.319  0.00  0.00    -0.650 OA
BRANCH  53  55
HETATM   55  O   UNK     0     -18.765 -10.349  -6.514  0.00  0.00    -0.776 OA
HETATM   56  H   UNK     0     -19.470 -10.923  -6.114  0.00  0.00     0.167 HD
ENDBRANCH  53  55
ENDBRANCH  52  53
ENDBRANCH  51  52
ENDBRANCH  18  51
TORSDOF 16
ENDMDL
MODEL 14
REMARK VINA RESULT:      -8.2      2.531      4.344
REMARK  16 active torsions:
REMARK  status: ('A' for Active; 'I' for Inactive)
REMARK    1  A    between atoms: C_6  and  C_7 
REMARK    2  A    between atoms: C_7  and  C_8 
REMARK    3  A    between atoms: C_8  and  C_9 
REMARK    4  A    between atoms: C_9  and  O_11 
REMARK    5  A    between atoms: C_16  and  C_17 
REMARK    6  A    between atoms: C_17  and  C_18 
REMARK    7  A    between atoms: C_18  and  C_19 
REMARK    8  A    between atoms: C_19  and  O_21 
REMARK    9  A    between atoms: C_28  and  C_29 
REMARK   10  A    between atoms: C_29  and  C_30 
REMARK   11  A    between atoms: C_30  and  C_31 
REMARK   12  A    between atoms: C_31  and  O_33 
REMARK   13  A    between atoms: C_42  and  C_43 
REMARK   14  A    between atoms: C_43  and  C_44 
REMARK   15  A    between atoms: C_44  and  C_45 
REMARK   16  A    between atoms: C_45  and  O_47 
ROOT
HETATM    1  C   UNK     0     -21.832 -14.581 -16.970  0.00  0.00     0.051 C 
HETATM    2  C   UNK     0     -21.476 -13.476 -15.998  0.00  0.00    -0.031 A 
HETATM    3  C   UNK     0     -21.592 -13.448 -14.617  0.00  0.00     0.021 A 
HETATM    4  N   UNK     0     -21.182 -12.239 -14.164  0.00  0.00    -0.361 N 
HETATM    5  C   UNK     0     -20.799 -11.500 -15.225  0.00  0.00     0.022 A 
HETATM    6  C   UNK     0     -20.972 -12.242 -16.388  0.00  0.00    -0.027 A 
HETATM    7  C   UNK     0     -20.183 -10.136 -15.262  0.00  0.00     0.115 C 
HETATM    8  C   UNK     0     -19.104  -9.847 -14.233  0.00  0.00     0.021 A 
HETATM    9  N   UNK     0     -18.174 -10.680 -13.740  0.00  0.00    -0.361 N 
HETATM   10  C   UNK     0     -17.487 -10.022 -12.782  0.00  0.00     0.022 A 
HETATM   11  C   UNK     0     -17.982  -8.727 -12.661  0.00  0.00    -0.027 A 
HETATM   12  C   UNK     0     -19.001  -8.610 -13.572  0.00  0.00    -0.031 A 
HETATM   13  C   UNK     0     -19.831  -7.367 -13.800  0.00  0.00     0.051 C 
HETATM   14  C   UNK     0     -16.377 -10.601 -11.910  0.00  0.00     0.115 C 
HETATM   15  C   UNK     0     -16.820 -11.774 -11.049  0.00  0.00     0.021 A 
HETATM   16  N   UNK     0     -17.348 -12.942 -11.460  0.00  0.00    -0.361 N 
HETATM   17  C   UNK     0     -17.668 -13.678 -10.394  0.00  0.00     0.022 A 
HETATM   18  C   UNK     0     -17.323 -12.960  -9.232  0.00  0.00    -0.027 A 
HETATM   19  C   UNK     0     -16.791 -11.769  -9.656  0.00  0.00    -0.031 A 
HETATM   20  C   UNK     0     -16.253 -10.704  -8.718  0.00  0.00     0.051 C 
HETATM   21  C   UNK     0     -18.349 -15.025 -10.312  0.00  0.00     0.115 C 
HETATM   22  C   UNK     0     -19.394 -15.343 -11.357  0.00  0.00     0.022 A 
HETATM   23  N   UNK     0     -20.329 -14.533 -11.869  0.00  0.00    -0.361 N 
HETATM   24  C   UNK     0     -20.949 -15.184 -12.874  0.00  0.00     0.021 A 
HETATM   25  C   UNK     0     -20.406 -16.448 -13.006  0.00  0.00    -0.031 A 
HETATM   26  C   UNK     0     -20.794 -17.557 -13.961  0.00  0.00     0.051 C 
HETATM   27  C   UNK     0     -19.409 -16.573 -12.045  0.00  0.00    -0.027 A 
HETATM   28  C   UNK     0     -22.014 -14.645 -13.812  0.00  0.00     0.115 C 
HETATM   29  H   UNK     0     -21.204 -11.903 -13.101  0.00  0.00     0.165 HD
HETATM   30  H   UNK     0     -17.967 -11.717 -14.101  0.00  0.00     0.165 HD
HETATM   31  H   UNK     0     -17.454 -13.274 -12.526  0.00  0.00     0.165 HD
HETATM   32  H   UNK     0     -20.590 -13.508 -11.496  0.00  0.00     0.165 HD
ENDROOT
BRANCH   6  33
HETATM   33  C   UNK     0     -20.701 -11.871 -17.825  0.00  0.00     0.051 C 
BRANCH  33  34
HETATM   34  C   UNK     0     -19.376 -12.433 -18.281  0.00  0.00     0.114 C 
BRANCH  34  35
HETATM   35  C   UNK     0     -19.169 -11.998 -19.692  0.00  0.00     0.139 C 
HETATM   36  O   UNK     0     -18.375 -12.633 -20.445  0.00  0.00    -0.650 OA
BRANCH  35  37
HETATM   37  O   UNK     0     -19.822 -10.901 -20.242  0.00  0.00    -0.776 OA
HETATM   38  H   UNK     0     -19.793  -9.991 -19.811  0.00  0.00     0.167 HD
ENDBRANCH  35  37
ENDBRANCH  34  35
ENDBRANCH  33  34
ENDBRANCH   6  33
BRANCH  27  39
HETATM   39  C   UNK     0     -18.642 -17.831 -11.832  0.00  0.00     0.051 C 
BRANCH  39  40
HETATM   40  C   UNK     0     -19.372 -19.024 -11.403  0.00  0.00     0.114 C 
BRANCH  40  41
HETATM   41  C   UNK     0     -19.016 -20.350 -11.858  0.00  0.00     0.139 C 
HETATM   42  O   UNK     0     -18.572 -21.232 -11.111  0.00  0.00    -0.650 OA
BRANCH  41  43
HETATM   43  O   UNK     0     -19.178 -20.675 -13.235  0.00  0.00    -0.776 OA
HETATM   44  H   UNK     0     -18.641 -21.476 -13.542  0.00  0.00     0.167 HD
ENDBRANCH  41  43
ENDBRANCH  40  41
ENDBRANCH  39  40
ENDBRANCH  27  39
BRANCH  11  45
HETATM   45  C   UNK     0     -17.530  -7.628 -11.737  0.00  0.00     0.051 C 
BRANCH  45  46
HETATM   46  C   UNK     0     -16.105  -7.245 -11.903  0.00  0.00     0.114 C 
BRANCH  46  47
HETATM   47  C   UNK     0     -15.955  -6.687 -13.278  0.00  0.00     0.139 C 
HETATM   48  O   UNK     0     -16.452  -5.579 -13.525  0.00  0.00    -0.650 OA
BRANCH  47  49
HETATM   49  O   UNK     0     -15.282  -7.384 -14.250  0.00  0.00    -0.776 OA
HETATM   50  H   UNK     0     -15.764  -7.792 -15.060  0.00  0.00     0.167 HD
ENDBRANCH  47  49
ENDBRANCH  46  47
ENDBRANCH  45  46
ENDBRANCH  11  45
BRANCH  18  51
HETATM   51  C   UNK     0     -17.472 -13.393  -7.797  0.00  0.00     0.051 C 
BRANCH  51  52
HETATM   52  C   UNK     0     -16.454 -14.503  -7.579  0.00  0.00     0.114 C 
BRANCH  52  53
HETATM   53  C   UNK     0     -16.993 -15.583  -6.730  0.00  0.00     0.139 C 
HETATM   54  O   UNK     0     -16.273 -16.113  -5.868  0.00  0.00    -0.650 OA
BRANCH  53  55
HETATM   55  O   UNK     0     -18.291 -15.999  -6.901  0.00  0.00    -0.776 OA
HETATM   56  H   UNK     0     -18.784 -16.629  -6.313  0.00  0.00     0.167 HD
ENDBRANCH  53  55
ENDBRANCH  52  53
ENDBRANCH  51  52
ENDBRANCH  18  51
TORSDOF 16
ENDMDL
MODEL 15
REMARK VINA RESULT:      -8.2      2.894      7.933
REMARK  16 active torsions:
REMARK  status: ('A' for Active; 'I' for Inactive)
REMARK    1  A    between atoms: C_6  and  C_7 
REMARK    2  A    between atoms: C_7  and  C_8 
REMARK    3  A    between atoms: C_8  and  C_9 
REMARK    4  A    between atoms: C_9  and  O_11 
REMARK    5  A    between atoms: C_16  and  C_17 
REMARK    6  A    between atoms: C_17  and  C_18 
REMARK    7  A    between atoms: C_18  and  C_19 
REMARK    8  A    between atoms: C_19  and  O_21 
REMARK    9  A    between atoms: C_28  and  C_29 
REMARK   10  A    between atoms: C_29  and  C_30 
REMARK   11  A    between atoms: C_30  and  C_31 
REMARK   12  A    between atoms: C_31  and  O_33 
REMARK   13  A    between atoms: C_42  and  C_43 
REMARK   14  A    between atoms: C_43  and  C_44 
REMARK   15  A    between atoms: C_44  and  C_45 
REMARK   16  A    between atoms: C_45  and  O_47 
ROOT
HETATM    1  C   UNK     0     -17.706 -12.938  -6.304  0.00  0.00     0.051 C 
HETATM    2  C   UNK     0     -17.230 -12.134  -7.496  0.00  0.00    -0.031 A 
HETATM    3  C   UNK     0     -16.922 -12.561  -8.779  0.00  0.00     0.021 A 
HETATM    4  N   UNK     0     -16.506 -11.499  -9.509  0.00  0.00    -0.361 N 
HETATM    5  C   UNK     0     -16.549 -10.404  -8.722  0.00  0.00     0.022 A 
HETATM    6  C   UNK     0     -16.995 -10.766  -7.455  0.00  0.00    -0.027 A 
HETATM    7  C   UNK     0     -16.283  -8.972  -9.068  0.00  0.00     0.115 C 
HETATM    8  C   UNK     0     -16.848  -8.472 -10.386  0.00  0.00     0.021 A 
HETATM    9  N   UNK     0     -18.004  -8.806 -10.980  0.00  0.00    -0.361 N 
HETATM   10  C   UNK     0     -18.052  -8.189 -12.180  0.00  0.00     0.022 A 
HETATM   11  C   UNK     0     -16.899  -7.430 -12.359  0.00  0.00    -0.027 A 
HETATM   12  C   UNK     0     -16.136  -7.604 -11.233  0.00  0.00    -0.031 A 
HETATM   13  C   UNK     0     -14.791  -6.962 -10.981  0.00  0.00     0.051 C 
HETATM   14  C   UNK     0     -19.157  -8.332 -13.223  0.00  0.00     0.115 C 
HETATM   15  C   UNK     0     -19.339  -9.751 -13.736  0.00  0.00     0.021 A 
HETATM   16  N   UNK     0     -19.631 -10.853 -13.019  0.00  0.00    -0.361 N 
HETATM   17  C   UNK     0     -19.636 -11.914 -13.829  0.00  0.00     0.022 A 
HETATM   18  C   UNK     0     -19.343 -11.482 -15.138  0.00  0.00    -0.027 A 
HETATM   19  C   UNK     0     -19.161 -10.125 -15.066  0.00  0.00    -0.031 A 
HETATM   20  C   UNK     0     -18.861  -9.250 -16.269  0.00  0.00     0.051 C 
HETATM   21  C   UNK     0     -19.834 -13.379 -13.510  0.00  0.00     0.115 C 
HETATM   22  C   UNK     0     -19.316 -13.880 -12.183  0.00  0.00     0.022 A 
HETATM   23  N   UNK     0     -18.171 -13.562 -11.565  0.00  0.00    -0.361 N 
HETATM   24  C   UNK     0     -18.180 -14.125 -10.340  0.00  0.00     0.021 A 
HETATM   25  C   UNK     0     -19.355 -14.831 -10.168  0.00  0.00    -0.031 A 
HETATM   26  C   UNK     0     -19.804 -15.660  -8.983  0.00  0.00     0.051 C 
HETATM   27  C   UNK     0     -20.098 -14.689 -11.334  0.00  0.00    -0.027 A 
HETATM   28  C   UNK     0     -17.143 -13.973  -9.240  0.00  0.00     0.115 C 
HETATM   29  H   UNK     0     -16.147 -11.537 -10.563  0.00  0.00     0.165 HD
HETATM   30  H   UNK     0     -18.811  -9.437 -10.534  0.00  0.00     0.165 HD
HETATM   31  H   UNK     0     -19.885 -10.876 -11.928  0.00  0.00     0.165 HD
HETATM   32  H   UNK     0     -17.325 -12.972 -12.006  0.00  0.00     0.165 HD
ENDROOT
BRANCH   6  33
HETATM   33  C   UNK     0     -17.210  -9.922  -6.225  0.00  0.00     0.051 C 
BRANCH  33  34
HETATM   34  C   UNK     0     -18.602  -9.336  -6.214  0.00  0.00     0.114 C 
BRANCH  34  35
HETATM   35  C   UNK     0     -18.465  -7.865  -6.009  0.00  0.00     0.139 C 
HETATM   36  O   UNK     0     -19.465  -7.176  -5.652  0.00  0.00    -0.650 OA
BRANCH  35  37
HETATM   37  O   UNK     0     -17.264  -7.191  -6.192  0.00  0.00    -0.776 OA
HETATM   38  H   UNK     0     -16.931  -6.504  -5.535  0.00  0.00     0.167 HD
ENDBRANCH  35  37
ENDBRANCH  34  35
ENDBRANCH  33  34
ENDBRANCH   6  33
BRANCH  27  39
HETATM   39  C   UNK     0     -21.403 -15.372 -11.552  0.00  0.00     0.051 C 
BRANCH  39  40
HETATM   40  C   UNK     0     -21.391 -16.771 -11.980  0.00  0.00     0.114 C 
BRANCH  40  41
HETATM   41  C   UNK     0     -20.594 -17.229 -13.095  0.00  0.00     0.139 C 
HETATM   42  O   UNK     0     -20.824 -16.920 -14.272  0.00  0.00    -0.650 OA
BRANCH  41  43
HETATM   43  O   UNK     0     -19.481 -18.081 -12.845  0.00  0.00    -0.776 OA
HETATM   44  H   UNK     0     -18.939 -17.834 -12.026  0.00  0.00     0.167 HD
ENDBRANCH  41  43
ENDBRANCH  40  41
ENDBRANCH  39  40
ENDBRANCH  27  39
BRANCH  11  45
HETATM   45  C   UNK     0     -16.512  -6.568 -13.531  0.00  0.00     0.051 C 
BRANCH  45  46
HETATM   46  C   UNK     0     -15.760  -7.288 -14.590  0.00  0.00     0.114 C 
BRANCH  46  47
HETATM   47  C   UNK     0     -14.795  -6.318 -15.183  0.00  0.00     0.139 C 
HETATM   48  O   UNK     0     -13.980  -5.761 -14.434  0.00  0.00    -0.650 OA
BRANCH  47  49
HETATM   49  O   UNK     0     -14.808  -6.046 -16.527  0.00  0.00    -0.776 OA
HETATM   50  H   UNK     0     -14.269  -5.271 -16.932  0.00  0.00     0.167 HD
ENDBRANCH  47  49
ENDBRANCH  46  47
ENDBRANCH  45  46
ENDBRANCH  11  45
BRANCH  18  51
HETATM   51  C   UNK     0     -19.263 -12.314 -16.391  0.00  0.00     0.051 C 
BRANCH  51  52
HETATM   52  C   UNK     0     -20.697 -12.528 -16.853  0.00  0.00     0.114 C 
BRANCH  52  53
HETATM   53  C   UNK     0     -21.046 -13.961 -16.916  0.00  0.00     0.139 C 
HETATM   54  O   UNK     0     -21.958 -14.411 -16.205  0.00  0.00    -0.650 OA
BRANCH  53  55
HETATM   55  O   UNK     0     -20.353 -14.792 -17.763  0.00  0.00    -0.776 OA
HETATM   56  H   UNK     0     -19.680 -14.510 -18.437  0.00  0.00     0.167 HD
ENDBRANCH  53  55
ENDBRANCH  52  53
ENDBRANCH  51  52
ENDBRANCH  18  51
TORSDOF 16
ENDMDL
MODEL 16
REMARK VINA RESULT:      -8.1     25.955     29.577
REMARK  16 active torsions:
REMARK  status: ('A' for Active; 'I' for Inactive)
REMARK    1  A    between atoms: C_6  and  C_7 
REMARK    2  A    between atoms: C_7  and  C_8 
REMARK    3  A    between atoms: C_8  and  C_9 
REMARK    4  A    between atoms: C_9  and  O_11 
REMARK    5  A    between atoms: C_16  and  C_17 
REMARK    6  A    between atoms: C_17  and  C_18 
REMARK    7  A    between atoms: C_18  and  C_19 
REMARK    8  A    between atoms: C_19  and  O_21 
REMARK    9  A    between atoms: C_28  and  C_29 
REMARK   10  A    between atoms: C_29  and  C_30 
REMARK   11  A    between atoms: C_30  and  C_31 
REMARK   12  A    between atoms: C_31  and  O_33 
REMARK   13  A    between atoms: C_42  and  C_43 
REMARK   14  A    between atoms: C_43  and  C_44 
REMARK   15  A    between atoms: C_44  and  C_45 
REMARK   16  A    between atoms: C_45  and  O_47 
ROOT
HETATM    1  C   UNK     0       1.574 -27.557 -14.336  0.00  0.00     0.051 C 
HETATM    2  C   UNK     0       2.721 -27.600 -13.347  0.00  0.00    -0.031 A 
HETATM    3  C   UNK     0       4.085 -27.657 -13.585  0.00  0.00     0.021 A 
HETATM    4  N   UNK     0       4.738 -27.712 -12.400  0.00  0.00    -0.361 N 
HETATM    5  C   UNK     0       3.820 -27.682 -11.412  0.00  0.00     0.022 A 
HETATM    6  C   UNK     0       2.547 -27.615 -11.970  0.00  0.00    -0.027 A 
HETATM    7  C   UNK     0       4.018 -27.626  -9.929  0.00  0.00     0.115 C 
HETATM    8  C   UNK     0       5.101 -26.691  -9.421  0.00  0.00     0.021 A 
HETATM    9  N   UNK     0       5.468 -25.495  -9.907  0.00  0.00    -0.361 N 
HETATM   10  C   UNK     0       6.534 -25.064  -9.199  0.00  0.00     0.022 A 
HETATM   11  C   UNK     0       6.856 -26.004  -8.224  0.00  0.00    -0.027 A 
HETATM   12  C   UNK     0       5.957 -27.031  -8.358  0.00  0.00    -0.031 A 
HETATM   13  C   UNK     0       5.919 -28.277  -7.503  0.00  0.00     0.051 C 
HETATM   14  C   UNK     0       7.321 -23.780  -9.447  0.00  0.00     0.115 C 
HETATM   15  C   UNK     0       7.970 -23.711 -10.820  0.00  0.00     0.021 A 
HETATM   16  N   UNK     0       7.363 -23.779 -12.019  0.00  0.00    -0.361 N 
HETATM   17  C   UNK     0       8.288 -23.751 -12.981  0.00  0.00     0.022 A 
HETATM   18  C   UNK     0       9.558 -23.650 -12.380  0.00  0.00    -0.027 A 
HETATM   19  C   UNK     0       9.345 -23.624 -11.026  0.00  0.00    -0.031 A 
HETATM   20  C   UNK     0      10.455 -23.485 -10.000  0.00  0.00     0.051 C 
HETATM   21  C   UNK     0       8.135 -23.872 -14.481  0.00  0.00     0.115 C 
HETATM   22  C   UNK     0       7.033 -24.765 -15.000  0.00  0.00     0.022 A 
HETATM   23  N   UNK     0       6.643 -25.958 -14.533  0.00  0.00    -0.361 N 
HETATM   24  C   UNK     0       5.533 -26.332 -15.202  0.00  0.00     0.021 A 
HETATM   25  C   UNK     0       5.207 -25.360 -16.128  0.00  0.00    -0.031 A 
HETATM   26  C   UNK     0       4.075 -25.345 -17.135  0.00  0.00     0.051 C 
HETATM   27  C   UNK     0       6.152 -24.347 -16.018  0.00  0.00    -0.027 A 
HETATM   28  C   UNK     0       4.675 -27.562 -14.964  0.00  0.00     0.115 C 
HETATM   29  H   UNK     0       5.841 -27.811 -12.270  0.00  0.00     0.165 HD
HETATM   30  H   UNK     0       4.947 -24.929 -10.718  0.00  0.00     0.165 HD
HETATM   31  H   UNK     0       6.256 -23.799 -12.194  0.00  0.00     0.165 HD
HETATM   32  H   UNK     0       7.172 -26.569 -13.756  0.00  0.00     0.165 HD
ENDROOT
BRANCH   6  33
HETATM   33  C   UNK     0       1.196 -27.568 -11.301  0.00  0.00     0.051 C 
BRANCH  33  34
HETATM   34  C   UNK     0       0.689 -28.962 -11.021  0.00  0.00     0.114 C 
BRANCH  34  35
HETATM   35  C   UNK     0       0.535 -29.093  -9.544  0.00  0.00     0.139 C 
HETATM   36  O   UNK     0       0.324 -30.227  -9.023  0.00  0.00    -0.650 OA
BRANCH  35  37
HETATM   37  O   UNK     0       0.618 -28.006  -8.683  0.00  0.00    -0.776 OA
HETATM   38  H   UNK     0      -0.174 -27.687  -8.147  0.00  0.00     0.167 HD
ENDBRANCH  35  37
ENDBRANCH  34  35
ENDBRANCH  33  34
ENDBRANCH   6  33
BRANCH  27  39
HETATM   39  C   UNK     0       6.171 -23.155 -16.909  0.00  0.00     0.051 C 
BRANCH  39  40
HETATM   40  C   UNK     0       6.100 -23.368 -18.355  0.00  0.00     0.114 C 
BRANCH  40  41
HETATM   41  C   UNK     0       7.265 -23.701 -19.143  0.00  0.00     0.139 C 
HETATM   42  O   UNK     0       8.004 -24.665 -18.898  0.00  0.00    -0.650 OA
BRANCH  41  43
HETATM   43  O   UNK     0       7.597 -22.887 -20.263  0.00  0.00    -0.776 OA
HETATM   44  H   UNK     0       8.434 -22.330 -20.143  0.00  0.00     0.167 HD
ENDBRANCH  41  43
ENDBRANCH  40  41
ENDBRANCH  39  40
ENDBRANCH  27  39
BRANCH  11  45
HETATM   45  C   UNK     0       7.956 -25.957  -7.198  0.00  0.00     0.051 C 
BRANCH  45  46
HETATM   46  C   UNK     0       9.295 -26.318  -7.728  0.00  0.00     0.114 C 
BRANCH  46  47
HETATM   47  C   UNK     0       9.831 -27.412  -6.868  0.00  0.00     0.139 C 
HETATM   48  O   UNK     0      10.259 -27.123  -5.742  0.00  0.00    -0.650 OA
BRANCH  47  49
HETATM   49  O   UNK     0       9.852 -28.709  -7.313  0.00  0.00    -0.776 OA
HETATM   50  H   UNK     0       9.458 -29.481  -6.763  0.00  0.00     0.167 HD
ENDBRANCH  47  49
ENDBRANCH  46  47
ENDBRANCH  45  46
ENDBRANCH  11  45
BRANCH  18  51
HETATM   51  C   UNK     0      10.900 -23.561 -13.059  0.00  0.00     0.051 C 
BRANCH  51  52
HETATM   52  C   UNK     0      10.959 -22.187 -13.709  0.00  0.00     0.114 C 
BRANCH  52  53
HETATM   53  C   UNK     0      11.401 -21.148 -12.759  0.00  0.00     0.139 C 
HETATM   54  O   UNK     0      10.562 -20.474 -12.140  0.00  0.00    -0.650 OA
BRANCH  53  55
HETATM   55  O   UNK     0      12.743 -20.930 -12.566  0.00  0.00    -0.776 OA
HETATM   56  H   UNK     0      13.359 -21.505 -12.041  0.00  0.00     0.167 HD
ENDBRANCH  53  55
ENDBRANCH  52  53
ENDBRANCH  51  52
ENDBRANCH  18  51
TORSDOF 16
ENDMDL
MODEL 17
REMARK VINA RESULT:      -8.0     25.571     28.736
REMARK  16 active torsions:
REMARK  status: ('A' for Active; 'I' for Inactive)
REMARK    1  A    between atoms: C_6  and  C_7 
REMARK    2  A    between atoms: C_7  and  C_8 
REMARK    3  A    between atoms: C_8  and  C_9 
REMARK    4  A    between atoms: C_9  and  O_11 
REMARK    5  A    between atoms: C_16  and  C_17 
REMARK    6  A    between atoms: C_17  and  C_18 
REMARK    7  A    between atoms: C_18  and  C_19 
REMARK    8  A    between atoms: C_19  and  O_21 
REMARK    9  A    between atoms: C_28  and  C_29 
REMARK   10  A    between atoms: C_29  and  C_30 
REMARK   11  A    between atoms: C_30  and  C_31 
REMARK   12  A    between atoms: C_31  and  O_33 
REMARK   13  A    between atoms: C_42  and  C_43 
REMARK   14  A    between atoms: C_43  and  C_44 
REMARK   15  A    between atoms: C_44  and  C_45 
REMARK   16  A    between atoms: C_45  and  O_47 
ROOT
HETATM    1  C   UNK     0       2.965 -27.912  -7.737  0.00  0.00     0.051 C 
HETATM    2  C   UNK     0       3.115 -27.002  -8.939  0.00  0.00    -0.031 A 
HETATM    3  C   UNK     0       3.702 -25.750  -9.027  0.00  0.00     0.021 A 
HETATM    4  N   UNK     0       3.579 -25.293 -10.296  0.00  0.00    -0.361 N 
HETATM    5  C   UNK     0       2.933 -26.230 -11.020  0.00  0.00     0.022 A 
HETATM    6  C   UNK     0       2.626 -27.312 -10.202  0.00  0.00    -0.027 A 
HETATM    7  C   UNK     0       2.629 -26.259 -12.486  0.00  0.00     0.115 C 
HETATM    8  C   UNK     0       3.736 -25.803 -13.420  0.00  0.00     0.021 A 
HETATM    9  N   UNK     0       5.061 -25.978 -13.295  0.00  0.00    -0.361 N 
HETATM   10  C   UNK     0       5.667 -25.327 -14.311  0.00  0.00     0.022 A 
HETATM   11  C   UNK     0       4.706 -24.724 -15.117  0.00  0.00    -0.027 A 
HETATM   12  C   UNK     0       3.487 -25.020 -14.562  0.00  0.00    -0.031 A 
HETATM   13  C   UNK     0       2.148 -24.576 -15.106  0.00  0.00     0.051 C 
HETATM   14  C   UNK     0       7.172 -25.202 -14.531  0.00  0.00     0.115 C 
HETATM   15  C   UNK     0       7.904 -24.502 -13.398  0.00  0.00     0.021 A 
HETATM   16  N   UNK     0       7.945 -24.860 -12.101  0.00  0.00    -0.361 N 
HETATM   17  C   UNK     0       8.635 -23.947 -11.415  0.00  0.00     0.022 A 
HETATM   18  C   UNK     0       9.074 -22.950 -12.309  0.00  0.00    -0.027 A 
HETATM   19  C   UNK     0       8.610 -23.310 -13.548  0.00  0.00    -0.031 A 
HETATM   20  C   UNK     0       8.891 -22.523 -14.815  0.00  0.00     0.051 C 
HETATM   21  C   UNK     0       8.908 -23.846  -9.931  0.00  0.00     0.115 C 
HETATM   22  C   UNK     0       7.833 -24.337  -8.990  0.00  0.00     0.022 A 
HETATM   23  N   UNK     0       6.506 -24.181  -9.091  0.00  0.00    -0.361 N 
HETATM   24  C   UNK     0       5.919 -24.903  -8.115  0.00  0.00     0.021 A 
HETATM   25  C   UNK     0       6.892 -25.530  -7.360  0.00  0.00    -0.031 A 
HETATM   26  C   UNK     0       6.730 -26.410  -6.138  0.00  0.00     0.051 C 
HETATM   27  C   UNK     0       8.125 -25.183  -7.900  0.00  0.00    -0.027 A 
HETATM   28  C   UNK     0       4.433 -25.113  -7.880  0.00  0.00     0.115 C 
HETATM   29  H   UNK     0       3.914 -24.295 -10.662  0.00  0.00     0.165 HD
HETATM   30  H   UNK     0       5.569 -26.602 -12.520  0.00  0.00     0.165 HD
HETATM   31  H   UNK     0       7.518 -25.802 -11.667  0.00  0.00     0.165 HD
HETATM   32  H   UNK     0       5.973 -23.525  -9.828  0.00  0.00     0.165 HD
ENDROOT
BRANCH   6  33
HETATM   33  C   UNK     0       1.909 -28.599 -10.523  0.00  0.00     0.051 C 
BRANCH  33  34
HETATM   34  C   UNK     0       0.413 -28.394 -10.516  0.00  0.00     0.114 C 
BRANCH  34  35
HETATM   35  C   UNK     0      -0.145 -29.215  -9.404  0.00  0.00     0.139 C 
HETATM   36  O   UNK     0      -1.096 -28.769  -8.698  0.00  0.00    -0.650 OA
BRANCH  35  37
HETATM   37  O   UNK     0       0.335 -30.482  -9.093  0.00  0.00    -0.776 OA
HETATM   38  H   UNK     0       0.213 -30.891  -8.181  0.00  0.00     0.167 HD
ENDBRANCH  35  37
ENDBRANCH  34  35
ENDBRANCH  33  34
ENDBRANCH   6  33
BRANCH  27  39
HETATM   39  C   UNK     0       9.420 -25.614  -7.307  0.00  0.00     0.051 C 
BRANCH  39  40
HETATM   40  C   UNK     0       9.833 -27.006  -7.479  0.00  0.00     0.114 C 
BRANCH  40  41
HETATM   41  C   UNK     0       9.550 -27.751  -8.685  0.00  0.00     0.139 C 
HETATM   42  O   UNK     0       9.028 -28.874  -8.689  0.00  0.00    -0.650 OA
BRANCH  41  43
HETATM   43  O   UNK     0       9.882 -27.177  -9.945  0.00  0.00    -0.776 OA
HETATM   44  H   UNK     0      10.512 -27.737 -10.508  0.00  0.00     0.167 HD
ENDBRANCH  41  43
ENDBRANCH  40  41
ENDBRANCH  39  40
ENDBRANCH  27  39
BRANCH  11  45
HETATM   45  C   UNK     0       4.902 -23.902 -16.363  0.00  0.00     0.051 C 
BRANCH  45  46
HETATM   46  C   UNK     0       4.921 -24.698 -17.617  0.00  0.00     0.114 C 
BRANCH  46  47
HETATM   47  C   UNK     0       6.338 -24.765 -18.076  0.00  0.00     0.139 C 
HETATM   48  O   UNK     0       6.896 -25.870 -18.116  0.00  0.00    -0.650 OA
BRANCH  47  49
HETATM   49  O   UNK     0       7.011 -23.628 -18.446  0.00  0.00    -0.776 OA
HETATM   50  H   UNK     0       6.543 -22.849 -18.924  0.00  0.00     0.167 HD
ENDBRANCH  47  49
ENDBRANCH  46  47
ENDBRANCH  45  46
ENDBRANCH  11  45
BRANCH  18  51
HETATM   51  C   UNK     0       9.907 -21.733 -12.004  0.00  0.00     0.051 C 
BRANCH  51  52
HETATM   52  C   UNK     0      11.335 -22.227 -11.827  0.00  0.00     0.114 C 
BRANCH  52  53
HETATM   53  C   UNK     0      12.225 -21.732 -12.895  0.00  0.00     0.139 C 
HETATM   54  O   UNK     0      12.750 -20.612 -12.796  0.00  0.00    -0.650 OA
BRANCH  53  55
HETATM   55  O   UNK     0      12.464 -22.515 -13.998  0.00  0.00    -0.776 OA
HETATM   56  H   UNK     0      11.890 -23.258 -14.322  0.00  0.00     0.167 HD
ENDBRANCH  53  55
ENDBRANCH  52  53
ENDBRANCH  51  52
ENDBRANCH  18  51
TORSDOF 16
ENDMDL
MODEL 18
REMARK VINA RESULT:      -8.0      3.577      8.577
REMARK  16 active torsions:
REMARK  status: ('A' for Active; 'I' for Inactive)
REMARK    1  A    between atoms: C_6  and  C_7 
REMARK    2  A    between atoms: C_7  and  C_8 
REMARK    3  A    between atoms: C_8  and  C_9 
REMARK    4  A    between atoms: C_9  and  O_11 
REMARK    5  A    between atoms: C_16  and  C_17 
REMARK    6  A    between atoms: C_17  and  C_18 
REMARK    7  A    between atoms: C_18  and  C_19 
REMARK    8  A    between atoms: C_19  and  O_21 
REMARK    9  A    between atoms: C_28  and  C_29 
REMARK   10  A    between atoms: C_29  and  C_30 
REMARK   11  A    between atoms: C_30  and  C_31 
REMARK   12  A    between atoms: C_31  and  O_33 
REMARK   13  A    between atoms: C_42  and  C_43 
REMARK   14  A    between atoms: C_43  and  C_44 
REMARK   15  A    between atoms: C_44  and  C_45 
REMARK   16  A    between atoms: C_45  and  O_47 
ROOT
HETATM    1  C   UNK     0     -14.216  -3.370  -9.426  0.00  0.00     0.051 C 
HETATM    2  C   UNK     0     -14.446  -4.314 -10.588  0.00  0.00    -0.031 A 
HETATM    3  C   UNK     0     -14.064  -5.638 -10.735  0.00  0.00     0.021 A 
HETATM    4  N   UNK     0     -14.457  -6.078 -11.954  0.00  0.00    -0.361 N 
HETATM    5  C   UNK     0     -15.088  -5.066 -12.584  0.00  0.00     0.022 A 
HETATM    6  C   UNK     0     -15.097  -3.946 -11.758  0.00  0.00    -0.027 A 
HETATM    7  C   UNK     0     -15.789  -5.057 -13.906  0.00  0.00     0.115 C 
HETATM    8  C   UNK     0     -16.662  -6.259 -14.223  0.00  0.00     0.021 A 
HETATM    9  N   UNK     0     -17.420  -6.985 -13.387  0.00  0.00    -0.361 N 
HETATM   10  C   UNK     0     -17.949  -8.012 -14.086  0.00  0.00     0.022 A 
HETATM   11  C   UNK     0     -17.526  -7.941 -15.410  0.00  0.00    -0.027 A 
HETATM   12  C   UNK     0     -16.716  -6.838 -15.503  0.00  0.00    -0.031 A 
HETATM   13  C   UNK     0     -16.030  -6.362 -16.764  0.00  0.00     0.051 C 
HETATM   14  C   UNK     0     -18.825  -9.128 -13.524  0.00  0.00     0.115 C 
HETATM   15  C   UNK     0     -18.147  -9.963 -12.450  0.00  0.00     0.021 A 
HETATM   16  N   UNK     0     -17.633  -9.537 -11.281  0.00  0.00    -0.361 N 
HETATM   17  C   UNK     0     -17.063 -10.566 -10.651  0.00  0.00     0.022 A 
HETATM   18  C   UNK     0     -17.221 -11.721 -11.444  0.00  0.00    -0.027 A 
HETATM   19  C   UNK     0     -17.902 -11.329 -12.567  0.00  0.00    -0.031 A 
HETATM   20  C   UNK     0     -18.316 -12.279 -13.677  0.00  0.00     0.051 C 
HETATM   21  C   UNK     0     -16.291 -10.604  -9.352  0.00  0.00     0.115 C 
HETATM   22  C   UNK     0     -15.453  -9.397  -9.003  0.00  0.00     0.022 A 
HETATM   23  N   UNK     0     -14.691  -8.653  -9.815  0.00  0.00    -0.361 N 
HETATM   24  C   UNK     0     -14.238  -7.592  -9.117  0.00  0.00     0.021 A 
HETATM   25  C   UNK     0     -14.711  -7.660  -7.820  0.00  0.00    -0.031 A 
HETATM   26  C   UNK     0     -14.445  -6.727  -6.658  0.00  0.00     0.051 C 
HETATM   27  C   UNK     0     -15.491  -8.807  -7.723  0.00  0.00    -0.027 A 
HETATM   28  C   UNK     0     -13.415  -6.424  -9.631  0.00  0.00     0.115 C 
HETATM   29  H   UNK     0     -14.250  -7.089 -12.376  0.00  0.00     0.165 HD
HETATM   30  H   UNK     0     -17.625  -6.746 -12.315  0.00  0.00     0.165 HD
HETATM   31  H   UNK     0     -17.716  -8.497 -10.868  0.00  0.00     0.165 HD
HETATM   32  H   UNK     0     -14.430  -8.892 -10.879  0.00  0.00     0.165 HD
ENDROOT
BRANCH   6  33
HETATM   33  C   UNK     0     -15.668  -2.571 -11.996  0.00  0.00     0.051 C 
BRANCH  33  34
HETATM   34  C   UNK     0     -15.042  -1.935 -13.214  0.00  0.00     0.114 C 
BRANCH  34  35
HETATM   35  C   UNK     0     -16.145  -1.346 -14.027  0.00  0.00     0.139 C 
HETATM   36  O   UNK     0     -16.569  -0.181 -13.775  0.00  0.00    -0.650 OA
BRANCH  35  37
HETATM   37  O   UNK     0     -16.747  -2.027 -15.078  0.00  0.00    -0.776 OA
HETATM   38  H   UNK     0     -17.730  -2.249 -15.077  0.00  0.00     0.167 HD
ENDBRANCH  35  37
ENDBRANCH  34  35
ENDBRANCH  33  34
ENDBRANCH   6  33
BRANCH  27  39
HETATM   39  C   UNK     0     -16.116  -9.257  -6.450  0.00  0.00     0.051 C 
BRANCH  39  40
HETATM   40  C   UNK     0     -17.444  -8.746  -6.110  0.00  0.00     0.114 C 
BRANCH  40  41
HETATM   41  C   UNK     0     -18.654  -9.464  -6.441  0.00  0.00     0.139 C 
HETATM   42  O   UNK     0     -18.792 -10.683  -6.275  0.00  0.00    -0.650 OA
BRANCH  41  43
HETATM   43  O   UNK     0     -19.756  -8.747  -6.988  0.00  0.00    -0.776 OA
HETATM   44  H   UNK     0     -19.916  -7.840  -6.567  0.00  0.00     0.167 HD
ENDBRANCH  41  43
ENDBRANCH  40  41
ENDBRANCH  39  40
ENDBRANCH  27  39
BRANCH  11  45
HETATM   45  C   UNK     0     -17.861  -8.857 -16.556  0.00  0.00     0.051 C 
BRANCH  45  46
HETATM   46  C   UNK     0     -17.050 -10.101 -16.594  0.00  0.00     0.114 C 
BRANCH  46  47
HETATM   47  C   UNK     0     -16.454 -10.199 -17.957  0.00  0.00     0.139 C 
HETATM   48  O   UNK     0     -16.672  -9.285 -18.766  0.00  0.00    -0.650 OA
BRANCH  47  49
HETATM   49  O   UNK     0     -15.682 -11.276 -18.311  0.00  0.00    -0.776 OA
HETATM   50  H   UNK     0     -15.758 -11.721 -19.233  0.00  0.00     0.167 HD
ENDBRANCH  47  49
ENDBRANCH  46  47
ENDBRANCH  45  46
ENDBRANCH  11  45
BRANCH  18  51
HETATM   51  C   UNK     0     -16.766 -13.124 -11.138  0.00  0.00     0.051 C 
BRANCH  51  52
HETATM   52  C   UNK     0     -17.912 -13.791 -10.393  0.00  0.00     0.114 C 
BRANCH  52  53
HETATM   53  C   UNK     0     -17.498 -14.270  -9.060  0.00  0.00     0.139 C 
HETATM   54  O   UNK     0     -16.303 -14.518  -8.833  0.00  0.00    -0.650 OA
BRANCH  53  55
HETATM   55  O   UNK     0     -18.441 -14.441  -8.076  0.00  0.00    -0.776 OA
HETATM   56  H   UNK     0     -19.376 -14.107  -8.098  0.00  0.00     0.167 HD
ENDBRANCH  53  55
ENDBRANCH  52  53
ENDBRANCH  51  52
ENDBRANCH  18  51
TORSDOF 16
ENDMDL
MODEL 19
REMARK VINA RESULT:      -8.0      3.756      8.683
REMARK  16 active torsions:
REMARK  status: ('A' for Active; 'I' for Inactive)
REMARK    1  A    between atoms: C_6  and  C_7 
REMARK    2  A    between atoms: C_7  and  C_8 
REMARK    3  A    between atoms: C_8  and  C_9 
REMARK    4  A    between atoms: C_9  and  O_11 
REMARK    5  A    between atoms: C_16  and  C_17 
REMARK    6  A    between atoms: C_17  and  C_18 
REMARK    7  A    between atoms: C_18  and  C_19 
REMARK    8  A    between atoms: C_19  and  O_21 
REMARK    9  A    between atoms: C_28  and  C_29 
REMARK   10  A    between atoms: C_29  and  C_30 
REMARK   11  A    between atoms: C_30  and  C_31 
REMARK   12  A    between atoms: C_31  and  O_33 
REMARK   13  A    between atoms: C_42  and  C_43 
REMARK   14  A    between atoms: C_43  and  C_44 
REMARK   15  A    between atoms: C_44  and  C_45 
REMARK   16  A    between atoms: C_45  and  O_47 
ROOT
HETATM    1  C   UNK     0     -20.757 -14.138 -16.972  0.00  0.00     0.051 C 
HETATM    2  C   UNK     0     -19.793 -13.347 -16.113  0.00  0.00    -0.031 A 
HETATM    3  C   UNK     0     -18.677 -12.615 -16.487  0.00  0.00     0.021 A 
HETATM    4  N   UNK     0     -18.096 -12.098 -15.379  0.00  0.00    -0.361 N 
HETATM    5  C   UNK     0     -18.822 -12.476 -14.307  0.00  0.00     0.022 A 
HETATM    6  C   UNK     0     -19.890 -13.261 -14.730  0.00  0.00    -0.027 A 
HETATM    7  C   UNK     0     -18.663 -12.098 -12.867  0.00  0.00     0.115 C 
HETATM    8  C   UNK     0     -18.353 -10.640 -12.576  0.00  0.00     0.021 A 
HETATM    9  N   UNK     0     -18.792  -9.547 -13.218  0.00  0.00    -0.361 N 
HETATM   10  C   UNK     0     -18.186  -8.470 -12.676  0.00  0.00     0.022 A 
HETATM   11  C   UNK     0     -17.340  -8.880 -11.650  0.00  0.00    -0.027 A 
HETATM   12  C   UNK     0     -17.440 -10.246 -11.582  0.00  0.00    -0.031 A 
HETATM   13  C   UNK     0     -16.698 -11.129 -10.604  0.00  0.00     0.051 C 
HETATM   14  C   UNK     0     -18.339  -7.023 -13.135  0.00  0.00     0.115 C 
HETATM   15  C   UNK     0     -17.897  -6.782 -14.570  0.00  0.00     0.021 A 
HETATM   16  N   UNK     0     -18.368  -7.372 -15.684  0.00  0.00    -0.361 N 
HETATM   17  C   UNK     0     -17.670  -6.940 -16.737  0.00  0.00     0.022 A 
HETATM   18  C   UNK     0     -16.704  -6.018 -16.288  0.00  0.00    -0.027 A 
HETATM   19  C   UNK     0     -16.857  -5.927 -14.929  0.00  0.00    -0.031 A 
HETATM   20  C   UNK     0     -16.033  -5.008 -14.046  0.00  0.00     0.051 C 
HETATM   21  C   UNK     0     -17.754  -7.345 -18.191  0.00  0.00     0.115 C 
HETATM   22  C   UNK     0     -18.106  -8.782 -18.496  0.00  0.00     0.022 A 
HETATM   23  N   UNK     0     -17.686  -9.890 -17.871  0.00  0.00    -0.361 N 
HETATM   24  C   UNK     0     -18.361 -10.942 -18.376  0.00  0.00     0.021 A 
HETATM   25  C   UNK     0     -19.229 -10.503 -19.357  0.00  0.00    -0.031 A 
HETATM   26  C   UNK     0     -20.164 -11.310 -20.234  0.00  0.00     0.051 C 
HETATM   27  C   UNK     0     -19.084  -9.124 -19.452  0.00  0.00    -0.027 A 
HETATM   28  C   UNK     0     -18.297 -12.391 -17.924  0.00  0.00     0.115 C 
HETATM   29  H   UNK     0     -17.154 -11.502 -15.358  0.00  0.00     0.165 HD
HETATM   30  H   UNK     0     -19.569  -9.528 -14.022  0.00  0.00     0.165 HD
HETATM   31  H   UNK     0     -19.242  -8.072 -15.736  0.00  0.00     0.165 HD
HETATM   32  H   UNK     0     -16.877  -9.945 -17.097  0.00  0.00     0.165 HD
ENDROOT
BRANCH   6  33
HETATM   33  C   UNK     0     -20.980 -13.929 -13.930  0.00  0.00     0.051 C 
BRANCH  33  34
HETATM   34  C   UNK     0     -22.263 -13.135 -14.006  0.00  0.00     0.114 C 
BRANCH  34  35
HETATM   35  C   UNK     0     -23.174 -13.656 -12.947  0.00  0.00     0.139 C 
HETATM   36  O   UNK     0     -24.272 -13.074 -12.708  0.00  0.00    -0.650 OA
BRANCH  35  37
HETATM   37  O   UNK     0     -22.874 -14.781 -12.188  0.00  0.00    -0.776 OA
HETATM   38  H   UNK     0     -22.098 -15.383 -12.408  0.00  0.00     0.167 HD
ENDBRANCH  35  37
ENDBRANCH  34  35
ENDBRANCH  33  34
ENDBRANCH   6  33
BRANCH  27  39
HETATM   39  C   UNK     0     -19.809  -8.300 -20.457  0.00  0.00     0.051 C 
BRANCH  39  40
HETATM   40  C   UNK     0     -19.043  -7.340 -21.251  0.00  0.00     0.114 C 
BRANCH  40  41
HETATM   41  C   UNK     0     -19.485  -6.887 -22.551  0.00  0.00     0.139 C 
HETATM   42  O   UNK     0     -19.366  -5.719 -22.945  0.00  0.00    -0.650 OA
BRANCH  41  43
HETATM   43  O   UNK     0     -20.092  -7.821 -23.438  0.00  0.00    -0.776 OA
HETATM   44  H   UNK     0     -19.454  -8.504 -23.828  0.00  0.00     0.167 HD
ENDBRANCH  41  43
ENDBRANCH  40  41
ENDBRANCH  39  40
ENDBRANCH  27  39
BRANCH  11  45
HETATM   45  C   UNK     0     -16.467  -8.040 -10.757  0.00  0.00     0.051 C 
BRANCH  45  46
HETATM   46  C   UNK     0     -15.310  -7.418 -11.450  0.00  0.00     0.114 C 
BRANCH  46  47
HETATM   47  C   UNK     0     -14.245  -8.457 -11.549  0.00  0.00     0.139 C 
HETATM   48  O   UNK     0     -14.122  -9.081 -12.612  0.00  0.00    -0.650 OA
BRANCH  47  49
HETATM   49  O   UNK     0     -13.418  -8.718 -10.486  0.00  0.00    -0.776 OA
HETATM   50  H   UNK     0     -13.460  -9.604  -9.967  0.00  0.00     0.167 HD
ENDBRANCH  47  49
ENDBRANCH  46  47
ENDBRANCH  45  46
ENDBRANCH  11  45
BRANCH  18  51
HETATM   51  C   UNK     0     -15.704  -5.249 -17.112  0.00  0.00     0.051 C 
BRANCH  51  52
HETATM   52  C   UNK     0     -16.367  -3.925 -17.461  0.00  0.00     0.114 C 
BRANCH  52  53
HETATM   53  C   UNK     0     -16.711  -3.844 -18.894  0.00  0.00     0.139 C 
HETATM   54  O   UNK     0     -16.242  -4.669 -19.693  0.00  0.00    -0.650 OA
BRANCH  53  55
HETATM   55  O   UNK     0     -17.549  -2.849 -19.336  0.00  0.00    -0.776 OA
HETATM   56  H   UNK     0     -17.279  -1.925 -19.583  0.00  0.00     0.167 HD
ENDBRANCH  53  55
ENDBRANCH  52  53
ENDBRANCH  51  52
ENDBRANCH  18  51
TORSDOF 16
ENDMDL
MODEL 20
REMARK VINA RESULT:      -7.7     25.033     28.511
REMARK  16 active torsions:
REMARK  status: ('A' for Active; 'I' for Inactive)
REMARK    1  A    between atoms: C_6  and  C_7 
REMARK    2  A    between atoms: C_7  and  C_8 
REMARK    3  A    between atoms: C_8  and  C_9 
REMARK    4  A    between atoms: C_9  and  O_11 
REMARK    5  A    between atoms: C_16  and  C_17 
REMARK    6  A    between atoms: C_17  and  C_18 
REMARK    7  A    between atoms: C_18  and  C_19 
REMARK    8  A    between atoms: C_19  and  O_21 
REMARK    9  A    between atoms: C_28  and  C_29 
REMARK   10  A    between atoms: C_29  and  C_30 
REMARK   11  A    between atoms: C_30  and  C_31 
REMARK   12  A    between atoms: C_31  and  O_33 
REMARK   13  A    between atoms: C_42  and  C_43 
REMARK   14  A    between atoms: C_43  and  C_44 
REMARK   15  A    between atoms: C_44  and  C_45 
REMARK   16  A    between atoms: C_45  and  O_47 
ROOT
HETATM    1  C   UNK     0       3.982 -24.306 -17.197  0.00  0.00     0.051 C 
HETATM    2  C   UNK     0       3.931 -25.039 -15.872  0.00  0.00    -0.031 A 
HETATM    3  C   UNK     0       4.958 -25.633 -15.155  0.00  0.00     0.021 A 
HETATM    4  N   UNK     0       4.445 -26.200 -14.037  0.00  0.00    -0.361 N 
HETATM    5  C   UNK     0       3.116 -25.974 -14.022  0.00  0.00     0.022 A 
HETATM    6  C   UNK     0       2.760 -25.253 -15.157  0.00  0.00    -0.027 A 
HETATM    7  C   UNK     0       2.105 -26.307 -12.970  0.00  0.00     0.115 C 
HETATM    8  C   UNK     0       2.514 -26.056 -11.529  0.00  0.00     0.021 A 
HETATM    9  N   UNK     0       3.275 -25.067 -11.036  0.00  0.00    -0.361 N 
HETATM   10  C   UNK     0       3.452 -25.291  -9.717  0.00  0.00     0.022 A 
HETATM   11  C   UNK     0       2.778 -26.452  -9.348  0.00  0.00    -0.027 A 
HETATM   12  C   UNK     0       2.184 -26.938 -10.484  0.00  0.00    -0.031 A 
HETATM   13  C   UNK     0       1.337 -28.188 -10.561  0.00  0.00     0.051 C 
HETATM   14  C   UNK     0       4.304 -24.454  -8.766  0.00  0.00     0.115 C 
HETATM   15  C   UNK     0       5.775 -24.399  -9.145  0.00  0.00     0.021 A 
HETATM   16  N   UNK     0       6.311 -23.957 -10.297  0.00  0.00    -0.361 N 
HETATM   17  C   UNK     0       7.633 -24.140 -10.265  0.00  0.00     0.022 A 
HETATM   18  C   UNK     0       7.976 -24.722  -9.029  0.00  0.00    -0.027 A 
HETATM   19  C   UNK     0       6.804 -24.878  -8.335  0.00  0.00    -0.031 A 
HETATM   20  C   UNK     0       6.724 -25.441  -6.928  0.00  0.00     0.051 C 
HETATM   21  C   UNK     0       8.676 -23.880 -11.328  0.00  0.00     0.115 C 
HETATM   22  C   UNK     0       8.270 -24.084 -12.769  0.00  0.00     0.022 A 
HETATM   23  N   UNK     0       7.509 -25.057 -13.287  0.00  0.00    -0.361 N 
HETATM   24  C   UNK     0       7.282 -24.771 -14.585  0.00  0.00     0.021 A 
HETATM   25  C   UNK     0       7.920 -23.590 -14.913  0.00  0.00    -0.031 A 
HETATM   26  C   UNK     0       7.992 -22.886 -16.252  0.00  0.00     0.051 C 
HETATM   27  C   UNK     0       8.560 -23.132 -13.767  0.00  0.00    -0.027 A 
HETATM   28  C   UNK     0       6.400 -25.528 -15.563  0.00  0.00     0.115 C 
HETATM   29  H   UNK     0       5.021 -26.791 -13.287  0.00  0.00     0.165 HD
HETATM   30  H   UNK     0       3.649 -24.181 -11.607  0.00  0.00     0.165 HD
HETATM   31  H   UNK     0       5.751 -23.460 -11.132  0.00  0.00     0.165 HD
HETATM   32  H   UNK     0       7.161 -25.978 -12.752  0.00  0.00     0.165 HD
ENDROOT
BRANCH   6  33
HETATM   33  C   UNK     0       1.409 -24.759 -15.609  0.00  0.00     0.051 C 
BRANCH  33  34
HETATM   34  C   UNK     0       0.738 -25.777 -16.501  0.00  0.00     0.114 C 
BRANCH  34  35
HETATM   35  C   UNK     0       0.397 -25.093 -17.781  0.00  0.00     0.139 C 
HETATM   36  O   UNK     0       0.103 -25.771 -18.808  0.00  0.00    -0.650 OA
BRANCH  35  37
HETATM   37  O   UNK     0       0.381 -23.709 -17.910  0.00  0.00    -0.776 OA
HETATM   38  H   UNK     0      -0.109 -23.248 -18.660  0.00  0.00     0.167 HD
ENDBRANCH  35  37
ENDBRANCH  34  35
ENDBRANCH  33  34
ENDBRANCH   6  33
BRANCH  27  39
HETATM   39  C   UNK     0       9.415 -21.914 -13.749  0.00  0.00     0.051 C 
BRANCH  39  40
HETATM   40  C   UNK     0      10.853 -22.080 -13.539  0.00  0.00     0.114 C 
BRANCH  40  41
HETATM   41  C   UNK     0      11.563 -21.389 -12.486  0.00  0.00     0.139 C 
HETATM   42  O   UNK     0      11.192 -21.379 -11.304  0.00  0.00    -0.650 OA
BRANCH  41  43
HETATM   43  O   UNK     0      12.753 -20.676 -12.806  0.00  0.00    -0.776 OA
HETATM   44  H   UNK     0      13.219 -20.995 -13.647  0.00  0.00     0.167 HD
ENDBRANCH  41  43
ENDBRANCH  40  41
ENDBRANCH  39  40
ENDBRANCH  27  39
BRANCH  11  45
HETATM   45  C   UNK     0       2.680 -27.092  -7.989  0.00  0.00     0.051 C 
BRANCH  45  46
HETATM   46  C   UNK     0       3.872 -27.893  -7.610  0.00  0.00     0.114 C 
BRANCH  46  47
HETATM   47  C   UNK     0       4.157 -27.609  -6.174  0.00  0.00     0.139 C 
HETATM   48  O   UNK     0       3.562 -26.669  -5.627  0.00  0.00    -0.650 OA
BRANCH  47  49
HETATM   49  O   UNK     0       5.058 -28.368  -5.472  0.00  0.00    -0.776 OA
HETATM   50  H   UNK     0       5.859 -27.951  -4.983  0.00  0.00     0.167 HD
ENDBRANCH  47  49
ENDBRANCH  46  47
ENDBRANCH  45  46
ENDBRANCH  11  45
BRANCH  18  51
HETATM   51  C   UNK     0       9.348 -25.089  -8.527  0.00  0.00     0.051 C 
BRANCH  51  52
HETATM   52  C   UNK     0       9.551 -26.556  -8.876  0.00  0.00     0.114 C 
BRANCH  52  53
HETATM   53  C   UNK     0       9.769 -27.382  -7.673  0.00  0.00     0.139 C 
HETATM   54  O   UNK     0       9.710 -28.620  -7.750  0.00  0.00    -0.650 OA
BRANCH  53  55
HETATM   55  O   UNK     0      10.034 -26.774  -6.470  0.00  0.00    -0.776 OA
HETATM   56  H   UNK     0       9.388 -26.640  -5.729  0.00  0.00     0.167 HD
ENDBRANCH  53  55
ENDBRANCH  52  53
ENDBRANCH  51  52
ENDBRANCH  18  51
TORSDOF 16
ENDMDL
