MODEL 1
REMARK VINA RESULT:     -10.5      0.000      0.000
REMARK  28 active torsions:
REMARK  status: ('A' for Active; 'I' for Inactive)
REMARK    1  A    between atoms: C_2  and  O_3 
REMARK    2  A    between atoms: C_2  and  C_4 
REMARK    3  A    between atoms: C_4  and  C_5 
REMARK    4  A    between atoms: C_5  and  C_6 
REMARK    5  A    between atoms: C_7  and  C_8 
REMARK    6  A    between atoms: C_8  and  C_9 
REMARK    7  A    between atoms: C_9  and  O_11 
REMARK    8  A    between atoms: C_28  and  C_29 
REMARK    9  A    between atoms: C_29  and  C_30 
REMARK   10  A    between atoms: C_30  and  O_32 
REMARK   11  A    between atoms: C_33  and  C_34 
REMARK   12  A    between atoms: C_34  and  C_35 
REMARK   13  A    between atoms: C_35  and  C_36 
REMARK   14  A    between atoms: C_36  and  O_38 
REMARK   15  A    between atoms: C_39  and  C_40 
REMARK   16  A    between atoms: C_40  and  C_41 
REMARK   17  A    between atoms: C_41  and  C_42 
REMARK   18  A    between atoms: C_42  and  O_44 
REMARK   19  A    between atoms: C_45  and  C_46 
REMARK   20  A    between atoms: C_46  and  C_47 
REMARK   21  A    between atoms: C_47  and  O_49 
REMARK   22  A    between atoms: C_50  and  C_51 
REMARK   23  A    between atoms: C_51  and  C_52 
REMARK   24  A    between atoms: C_52  and  O_54 
REMARK   25  A    between atoms: C_55  and  C_56 
REMARK   26  A    between atoms: C_56  and  C_57 
REMARK   27  A    between atoms: C_57  and  C_58 
REMARK   28  A    between atoms: C_58  and  O_60 
ROOT
ATOM      1  O   UNK d   0     -31.307 -18.109  14.258  0.00  0.00    -0.650 OA
ATOM      2  C   UNK d   0     -31.125 -19.018  15.098  0.00  0.00     0.139 C 
ENDROOT
BRANCH   2   3
ATOM      3  O   UNK d   0     -30.197 -18.837  16.095  0.00  0.00    -0.776 OA
ATOM      4  H   UNK d   0     -30.383 -18.213  16.883  0.00  0.00     0.167 HD
ENDBRANCH   2   3
BRANCH   2   5
ATOM      5  C   UNK d   0     -31.909 -20.283  15.015  0.00  0.00     0.115 C 
BRANCH   5   6
ATOM      6  C   UNK d   0     -31.477 -21.081  13.815  0.00  0.00     0.052 C 
BRANCH   6   7
ATOM      7  C   UNK d   0     -32.643 -21.549  12.977  0.00  0.00    -0.020 A 
ATOM      8  C   UNK d   0     -32.778 -22.699  12.368  0.00  0.00    -0.011 A 
ATOM      9  C   UNK d   0     -34.059 -22.690  11.681  0.00  0.00     0.067 A 
ATOM     10  C   UNK d   0     -34.790 -23.591  10.891  0.00  0.00     0.062 C 
ATOM     11  N   UNK d   0     -34.634 -21.494  11.921  0.00  0.00    -0.248 NA
ATOM     12  C   UNK d   0     -36.142 -23.508  10.543  0.00  0.00     0.041 A 
ATOM     13  N   UNK d   0     -36.892 -22.464  10.143  0.00  0.00    -0.355 N 
ATOM     14  C   UNK d   0     -36.945 -24.658  10.652  0.00  0.00    -0.022 A 
ATOM     15  C   UNK d   0     -38.151 -22.919  10.003  0.00  0.00     0.042 A 
ATOM     16  H   UNK d   0     -36.535 -21.429   9.944  0.00  0.00     0.166 HD
ATOM     17  C   UNK d   0     -39.326 -22.250   9.607  0.00  0.00     0.062 C 
ATOM     18  C   UNK d   0     -38.224 -24.291  10.314  0.00  0.00    -0.013 A 
ATOM     19  C   UNK d   0     -39.795 -21.023  10.004  0.00  0.00     0.067 A 
ATOM     20  N   UNK d   0     -38.958 -20.253  10.703  0.00  0.00    -0.248 NA
ATOM     21  C   UNK d   0     -41.043 -20.290   9.873  0.00  0.00    -0.011 A 
ATOM     22  C   UNK d   0     -39.568 -19.070  11.041  0.00  0.00     0.066 A 
ATOM     23  C   UNK d   0     -38.795 -18.155  11.741  0.00  0.00     0.062 C 
ATOM     24  C   UNK d   0     -40.905 -19.149  10.485  0.00  0.00    -0.020 A 
ATOM     25  C   UNK d   0     -37.434 -18.253  12.070  0.00  0.00     0.041 A 
ATOM     26  N   UNK d   0     -36.692 -19.287  12.481  0.00  0.00    -0.355 N 
ATOM     27  C   UNK d   0     -36.628 -17.099  11.955  0.00  0.00    -0.022 A 
ATOM     28  C   UNK d   0     -35.438 -18.833  12.630  0.00  0.00     0.042 A 
ATOM     29  H   UNK d   0     -37.055 -20.324  12.691  0.00  0.00     0.166 HD
ATOM     30  C   UNK d   0     -34.261 -19.486  13.032  0.00  0.00     0.062 C 
ATOM     31  C   UNK d   0     -35.363 -17.458  12.308  0.00  0.00    -0.013 A 
ATOM     32  C   UNK d   0     -33.834 -20.760  12.695  0.00  0.00     0.066 A 
BRANCH   8  33
ATOM     33  C   UNK d   0     -31.815 -23.815  12.361  0.00  0.00     0.151 C 
BRANCH  33  34
ATOM     34  C   UNK d   0     -30.994 -23.853  11.138  0.00  0.00     0.143 C 
ATOM     35  O   UNK d   0     -31.492 -24.165  10.046  0.00  0.00    -0.650 OA
BRANCH  34  36
ATOM     36  O   UNK d   0     -29.657 -23.538  11.211  0.00  0.00    -0.776 OA
ATOM     37  H   UNK d   0     -29.018 -23.732  10.428  0.00  0.00     0.167 HD
ENDBRANCH  34  36
ENDBRANCH  33  34
ENDBRANCH   8  33
BRANCH  31  38
ATOM     38  C   UNK d   0     -34.153 -16.554  12.325  0.00  0.00     0.151 C 
BRANCH  38  39
ATOM     39  C   UNK d   0     -33.299 -16.736  11.170  0.00  0.00     0.143 C 
ATOM     40  O   UNK d   0     -33.591 -16.285  10.049  0.00  0.00    -0.650 OA
BRANCH  39  41
ATOM     41  O   UNK d   0     -32.103 -17.441  11.306  0.00  0.00    -0.776 OA
ATOM     42  H   UNK d   0     -31.571 -17.285  12.168  0.00  0.00     0.167 HD
ENDBRANCH  39  41
ENDBRANCH  38  39
ENDBRANCH  31  38
BRANCH  27  43
ATOM     43  C   UNK d   0     -37.009 -15.701  11.536  0.00  0.00     0.052 C 
BRANCH  43  44
ATOM     44  C   UNK d   0     -37.119 -15.538  10.055  0.00  0.00     0.115 C 
BRANCH  44  45
ATOM     45  C   UNK d   0     -38.223 -14.573   9.814  0.00  0.00     0.139 C 
ATOM     46  O   UNK d   0     -38.873 -14.671   8.744  0.00  0.00    -0.650 OA
BRANCH  45  47
ATOM     47  O   UNK d   0     -38.562 -13.586  10.715  0.00  0.00    -0.776 OA
ATOM     48  H   UNK d   0     -37.860 -12.991  11.185  0.00  0.00     0.167 HD
ENDBRANCH  45  47
ENDBRANCH  44  45
ENDBRANCH  43  44
ENDBRANCH  27  43
BRANCH  24  49
ATOM     49  C   UNK d   0     -41.914 -18.080  10.567  0.00  0.00     0.052 C 
BRANCH  49  50
ATOM     50  C   UNK d   0     -41.353 -16.787  10.034  0.00  0.00     0.115 C 
BRANCH  50  51
ATOM     51  C   UNK d   0     -41.495 -15.604  10.872  0.00  0.00     0.139 C 
ATOM     52  O   UNK d   0     -41.680 -14.458  10.399  0.00  0.00    -0.650 OA
BRANCH  51  53
ATOM     53  O   UNK d   0     -41.425 -15.728  12.251  0.00  0.00    -0.776 OA
ATOM     54  H   UNK d   0     -42.238 -16.056  12.741  0.00  0.00     0.167 HD
ENDBRANCH  51  53
ENDBRANCH  50  51
ENDBRANCH  49  50
ENDBRANCH  24  49
BRANCH  21  55
ATOM     55  C   UNK d   0     -42.241 -20.803   9.145  0.00  0.00     0.151 C 
BRANCH  55  56
ATOM     56  C   UNK d   0     -42.018 -20.870   7.693  0.00  0.00     0.143 C 
ATOM     57  O   UNK d   0     -41.913 -21.948   7.076  0.00  0.00    -0.650 OA
BRANCH  56  58
ATOM     58  O   UNK d   0     -41.923 -19.668   6.995  0.00  0.00    -0.776 OA
ATOM     59  H   UNK d   0     -42.825 -19.184   6.834  0.00  0.00     0.167 HD
ENDBRANCH  56  58
ENDBRANCH  55  56
ENDBRANCH  21  55
BRANCH  18  60
ATOM     60  C   UNK d   0     -39.415 -25.217  10.302  0.00  0.00     0.151 C 
BRANCH  60  61
ATOM     61  C   UNK d   0     -39.994 -25.146  11.652  0.00  0.00     0.143 C 
ATOM     62  O   UNK d   0     -39.649 -25.791  12.643  0.00  0.00    -0.650 OA
BRANCH  61  63
ATOM     63  O   UNK d   0     -41.063 -24.230  11.802  0.00  0.00    -0.776 OA
ATOM     64  H   UNK d   0     -41.581 -23.903  11.005  0.00  0.00     0.167 HD
ENDBRANCH  61  63
ENDBRANCH  60  61
ENDBRANCH  18  60
BRANCH  14  65
ATOM     65  C   UNK d   0     -36.581 -26.084  10.953  0.00  0.00     0.052 C 
BRANCH  65  66
ATOM     66  C   UNK d   0     -35.819 -26.734   9.853  0.00  0.00     0.115 C 
BRANCH  66  67
ATOM     67  C   UNK d   0     -34.402 -26.926   9.984  0.00  0.00     0.139 C 
ATOM     68  O   UNK d   0     -33.684 -26.944   8.918  0.00  0.00    -0.650 OA
BRANCH  67  69
ATOM     69  O   UNK d   0     -33.670 -27.102  11.158  0.00  0.00    -0.776 OA
ATOM     70  H   UNK d   0     -34.030 -26.610  11.989  0.00  0.00     0.167 HD
ENDBRANCH  67  69
ENDBRANCH  66  67
ENDBRANCH  65  66
ENDBRANCH  14  65
ENDBRANCH   6   7
ENDBRANCH   5   6
ENDBRANCH   2   5
TORSDOF 28
ENDMDL
MODEL 2
REMARK VINA RESULT:     -10.2     28.457     32.201
REMARK  28 active torsions:
REMARK  status: ('A' for Active; 'I' for Inactive)
REMARK    1  A    between atoms: C_2  and  O_3 
REMARK    2  A    between atoms: C_2  and  C_4 
REMARK    3  A    between atoms: C_4  and  C_5 
REMARK    4  A    between atoms: C_5  and  C_6 
REMARK    5  A    between atoms: C_7  and  C_8 
REMARK    6  A    between atoms: C_8  and  C_9 
REMARK    7  A    between atoms: C_9  and  O_11 
REMARK    8  A    between atoms: C_28  and  C_29 
REMARK    9  A    between atoms: C_29  and  C_30 
REMARK   10  A    between atoms: C_30  and  O_32 
REMARK   11  A    between atoms: C_33  and  C_34 
REMARK   12  A    between atoms: C_34  and  C_35 
REMARK   13  A    between atoms: C_35  and  C_36 
REMARK   14  A    between atoms: C_36  and  O_38 
REMARK   15  A    between atoms: C_39  and  C_40 
REMARK   16  A    between atoms: C_40  and  C_41 
REMARK   17  A    between atoms: C_41  and  C_42 
REMARK   18  A    between atoms: C_42  and  O_44 
REMARK   19  A    between atoms: C_45  and  C_46 
REMARK   20  A    between atoms: C_46  and  C_47 
REMARK   21  A    between atoms: C_47  and  O_49 
REMARK   22  A    between atoms: C_50  and  C_51 
REMARK   23  A    between atoms: C_51  and  C_52 
REMARK   24  A    between atoms: C_52  and  O_54 
REMARK   25  A    between atoms: C_55  and  C_56 
REMARK   26  A    between atoms: C_56  and  C_57 
REMARK   27  A    between atoms: C_57  and  C_58 
REMARK   28  A    between atoms: C_58  and  O_60 
ROOT
ATOM      1  O   UNK d   0     -14.995  -9.742  -6.926  0.00  0.00    -0.650 OA
ATOM      2  C   UNK d   0     -15.969 -10.276  -6.349  0.00  0.00     0.139 C 
ENDROOT
BRANCH   2   3
ATOM      3  O   UNK d   0     -17.060  -9.508  -6.021  0.00  0.00    -0.776 OA
ATOM      4  H   UNK d   0     -17.998  -9.761  -6.339  0.00  0.00     0.167 HD
ENDBRANCH   2   3
BRANCH   2   5
ATOM      5  C   UNK d   0     -15.940 -11.730  -6.023  0.00  0.00     0.115 C 
BRANCH   5   6
ATOM      6  C   UNK d   0     -15.265 -12.495  -7.129  0.00  0.00     0.052 C 
BRANCH   6   7
ATOM      7  C   UNK d   0     -14.075 -13.288  -6.644  0.00  0.00    -0.020 A 
ATOM      8  C   UNK d   0     -13.679 -14.465  -7.055  0.00  0.00    -0.011 A 
ATOM      9  C   UNK d   0     -12.496 -14.828  -6.293  0.00  0.00     0.067 A 
ATOM     10  C   UNK d   0     -11.605 -15.913  -6.262  0.00  0.00     0.062 C 
ATOM     11  N   UNK d   0     -12.245 -13.817  -5.436  0.00  0.00    -0.248 NA
ATOM     12  C   UNK d   0     -10.350 -15.961  -5.645  0.00  0.00     0.041 A 
ATOM     13  N   UNK d   0      -9.934 -15.513  -4.445  0.00  0.00    -0.355 N 
ATOM     14  C   UNK d   0      -9.264 -16.507  -6.353  0.00  0.00    -0.022 A 
ATOM     15  C   UNK d   0      -8.611 -15.754  -4.377  0.00  0.00     0.042 A 
ATOM     16  H   UNK d   0     -10.567 -15.053  -3.654  0.00  0.00     0.166 HD
ATOM     17  C   UNK d   0      -7.686 -15.488  -3.347  0.00  0.00     0.062 C 
ATOM     18  C   UNK d   0      -8.155 -16.376  -5.555  0.00  0.00    -0.013 A 
ATOM     19  C   UNK d   0      -7.536 -14.351  -2.595  0.00  0.00     0.067 A 
ATOM     20  N   UNK d   0      -8.500 -13.432  -2.690  0.00  0.00    -0.248 NA
ATOM     21  C   UNK d   0      -6.541 -13.834  -1.671  0.00  0.00    -0.011 A 
ATOM     22  C   UNK d   0      -8.206 -12.350  -1.897  0.00  0.00     0.066 A 
ATOM     23  C   UNK d   0      -9.147 -11.330  -1.872  0.00  0.00     0.062 C 
ATOM     24  C   UNK d   0      -6.937 -12.660  -1.269  0.00  0.00    -0.020 A 
ATOM     25  C   UNK d   0     -10.407 -11.307  -2.488  0.00  0.00     0.041 A 
ATOM     26  N   UNK d   0     -10.818 -11.739  -3.687  0.00  0.00    -0.355 N 
ATOM     27  C   UNK d   0     -11.498 -10.763  -1.775  0.00  0.00    -0.022 A 
ATOM     28  C   UNK d   0     -12.135 -11.492  -3.761  0.00  0.00     0.042 A 
ATOM     29  H   UNK d   0     -10.178 -12.191  -4.485  0.00  0.00     0.166 HD
ATOM     30  C   UNK d   0     -13.065 -11.742  -4.782  0.00  0.00     0.062 C 
ATOM     31  C   UNK d   0     -12.595 -10.876  -2.572  0.00  0.00    -0.013 A 
ATOM     32  C   UNK d   0     -13.159 -12.859  -5.598  0.00  0.00     0.066 A 
BRANCH   8  33
ATOM     33  C   UNK d   0     -14.308 -15.296  -8.099  0.00  0.00     0.151 C 
BRANCH  33  34
ATOM     34  C   UNK d   0     -15.341 -16.200  -7.564  0.00  0.00     0.143 C 
ATOM     35  O   UNK d   0     -15.042 -17.318  -7.122  0.00  0.00    -0.650 OA
BRANCH  34  36
ATOM     36  O   UNK d   0     -16.656 -15.794  -7.556  0.00  0.00    -0.776 OA
ATOM     37  H   UNK d   0     -16.924 -14.846  -7.856  0.00  0.00     0.167 HD
ENDBRANCH  34  36
ENDBRANCH  33  34
ENDBRANCH   8  33
BRANCH  31  38
ATOM     38  C   UNK d   0     -13.999 -10.439  -2.225  0.00  0.00     0.151 C 
BRANCH  38  39
ATOM     39  C   UNK d   0     -14.438  -9.296  -2.997  0.00  0.00     0.143 C 
ATOM     40  O   UNK d   0     -15.623  -9.142  -3.342  0.00  0.00    -0.650 OA
BRANCH  39  41
ATOM     41  O   UNK d   0     -13.511  -8.325  -3.374  0.00  0.00    -0.776 OA
ATOM     42  H   UNK d   0     -13.066  -8.442  -4.289  0.00  0.00     0.167 HD
ENDBRANCH  39  41
ENDBRANCH  38  39
ENDBRANCH  31  38
BRANCH  27  43
ATOM     43  C   UNK d   0     -11.532 -10.152  -0.396  0.00  0.00     0.052 C 
BRANCH  43  44
ATOM     44  C   UNK d   0     -10.699  -8.917  -0.277  0.00  0.00     0.115 C 
BRANCH  44  45
ATOM     45  C   UNK d   0     -11.642  -7.788  -0.064  0.00  0.00     0.139 C 
ATOM     46  O   UNK d   0     -12.715  -7.782  -0.718  0.00  0.00    -0.650 OA
BRANCH  45  47
ATOM     47  O   UNK d   0     -11.391  -6.760   0.818  0.00  0.00    -0.776 OA
ATOM     48  H   UNK d   0     -12.052  -6.487   1.564  0.00  0.00     0.167 HD
ENDBRANCH  45  47
ENDBRANCH  44  45
ENDBRANCH  43  44
ENDBRANCH  27  43
BRANCH  24  49
ATOM     49  C   UNK d   0      -6.246 -11.797  -0.297  0.00  0.00     0.052 C 
BRANCH  49  50
ATOM     50  C   UNK d   0      -6.134 -10.391  -0.829  0.00  0.00     0.115 C 
BRANCH  50  51
ATOM     51  C   UNK d   0      -6.177  -9.307   0.142  0.00  0.00     0.139 C 
ATOM     52  O   UNK d   0      -5.182  -8.589   0.398  0.00  0.00    -0.650 OA
BRANCH  51  53
ATOM     53  O   UNK d   0      -7.355  -9.042   0.824  0.00  0.00    -0.776 OA
ATOM     54  H   UNK d   0      -7.848  -8.193   0.609  0.00  0.00     0.167 HD
ENDBRANCH  51  53
ENDBRANCH  50  51
ENDBRANCH  49  50
ENDBRANCH  24  49
BRANCH  21  55
ATOM     55  C   UNK d   0      -5.301 -14.568  -1.283  0.00  0.00     0.151 C 
BRANCH  55  56
ATOM     56  C   UNK d   0      -4.245 -14.443  -2.299  0.00  0.00     0.143 C 
ATOM     57  O   UNK d   0      -4.098 -15.265  -3.225  0.00  0.00    -0.650 OA
BRANCH  56  58
ATOM     58  O   UNK d   0      -3.382 -13.352  -2.208  0.00  0.00    -0.776 OA
ATOM     59  H   UNK d   0      -2.486 -13.544  -1.724  0.00  0.00     0.167 HD
ENDBRANCH  56  58
ENDBRANCH  55  56
ENDBRANCH  21  55
BRANCH  18  60
ATOM     60  C   UNK d   0      -6.764 -16.825  -5.928  0.00  0.00     0.151 C 
BRANCH  60  61
ATOM     61  C   UNK d   0      -6.171 -15.714  -6.687  0.00  0.00     0.143 C 
ATOM     62  O   UNK d   0      -6.272 -15.504  -7.896  0.00  0.00    -0.650 OA
BRANCH  61  63
ATOM     63  O   UNK d   0      -5.405 -14.802  -5.921  0.00  0.00    -0.776 OA
ATOM     64  H   UNK d   0      -5.562 -13.811  -5.986  0.00  0.00     0.167 HD
ENDBRANCH  61  63
ENDBRANCH  60  61
ENDBRANCH  18  60
BRANCH  14  65
ATOM     65  C   UNK d   0      -9.214 -17.225  -7.672  0.00  0.00     0.052 C 
BRANCH  65  66
ATOM     66  C   UNK d   0      -9.592 -18.660  -7.568  0.00  0.00     0.115 C 
BRANCH  66  67
ATOM     67  C   UNK d   0     -10.660 -19.175  -8.377  0.00  0.00     0.139 C 
ATOM     68  O   UNK d   0     -11.469 -20.028  -7.856  0.00  0.00    -0.650 OA
BRANCH  67  69
ATOM     69  O   UNK d   0     -10.951 -18.864  -9.705  0.00  0.00    -0.776 OA
ATOM     70  H   UNK d   0     -11.849 -18.386  -9.867  0.00  0.00     0.167 HD
ENDBRANCH  67  69
ENDBRANCH  66  67
ENDBRANCH  65  66
ENDBRANCH  14  65
ENDBRANCH   6   7
ENDBRANCH   5   6
ENDBRANCH   2   5
TORSDOF 28
ENDMDL
MODEL 3
REMARK VINA RESULT:     -10.0     28.895     32.627
REMARK  28 active torsions:
REMARK  status: ('A' for Active; 'I' for Inactive)
REMARK    1  A    between atoms: C_2  and  O_3 
REMARK    2  A    between atoms: C_2  and  C_4 
REMARK    3  A    between atoms: C_4  and  C_5 
REMARK    4  A    between atoms: C_5  and  C_6 
REMARK    5  A    between atoms: C_7  and  C_8 
REMARK    6  A    between atoms: C_8  and  C_9 
REMARK    7  A    between atoms: C_9  and  O_11 
REMARK    8  A    between atoms: C_28  and  C_29 
REMARK    9  A    between atoms: C_29  and  C_30 
REMARK   10  A    between atoms: C_30  and  O_32 
REMARK   11  A    between atoms: C_33  and  C_34 
REMARK   12  A    between atoms: C_34  and  C_35 
REMARK   13  A    between atoms: C_35  and  C_36 
REMARK   14  A    between atoms: C_36  and  O_38 
REMARK   15  A    between atoms: C_39  and  C_40 
REMARK   16  A    between atoms: C_40  and  C_41 
REMARK   17  A    between atoms: C_41  and  C_42 
REMARK   18  A    between atoms: C_42  and  O_44 
REMARK   19  A    between atoms: C_45  and  C_46 
REMARK   20  A    between atoms: C_46  and  C_47 
REMARK   21  A    between atoms: C_47  and  O_49 
REMARK   22  A    between atoms: C_50  and  C_51 
REMARK   23  A    between atoms: C_51  and  C_52 
REMARK   24  A    between atoms: C_52  and  O_54 
REMARK   25  A    between atoms: C_55  and  C_56 
REMARK   26  A    between atoms: C_56  and  C_57 
REMARK   27  A    between atoms: C_57  and  C_58 
REMARK   28  A    between atoms: C_58  and  O_60 
ROOT
ATOM      1  O   UNK d   0     -17.085  -9.264  -5.960  0.00  0.00    -0.650 OA
ATOM      2  C   UNK d   0     -15.945  -9.779  -5.934  0.00  0.00     0.139 C 
ENDROOT
BRANCH   2   3
ATOM      3  O   UNK d   0     -14.862  -9.040  -6.344  0.00  0.00    -0.776 OA
ATOM      4  H   UNK d   0     -14.941  -8.034  -6.506  0.00  0.00     0.167 HD
ENDBRANCH   2   3
BRANCH   2   5
ATOM      5  C   UNK d   0     -15.769 -11.183  -5.463  0.00  0.00     0.115 C 
BRANCH   5   6
ATOM      6  C   UNK d   0     -15.493 -12.090  -6.632  0.00  0.00     0.052 C 
BRANCH   6   7
ATOM      7  C   UNK d   0     -14.324 -13.014  -6.386  0.00  0.00    -0.020 A 
ATOM      8  C   UNK d   0     -14.164 -14.234  -6.831  0.00  0.00    -0.011 A 
ATOM      9  C   UNK d   0     -12.893 -14.728  -6.329  0.00  0.00     0.067 A 
ATOM     10  C   UNK d   0     -12.146 -15.910  -6.451  0.00  0.00     0.062 C 
ATOM     11  N   UNK d   0     -12.348 -13.744  -5.583  0.00  0.00    -0.248 NA
ATOM     12  C   UNK d   0     -10.801 -16.101  -6.118  0.00  0.00     0.041 A 
ATOM     13  N   UNK d   0     -10.085 -15.693  -5.052  0.00  0.00    -0.355 N 
ATOM     14  C   UNK d   0      -9.965 -16.780  -7.023  0.00  0.00    -0.022 A 
ATOM     15  C   UNK d   0      -8.816 -16.090  -5.262  0.00  0.00     0.042 A 
ATOM     16  H   UNK d   0     -10.474 -15.154  -4.160  0.00  0.00     0.166 HD
ATOM     17  C   UNK d   0      -7.664 -15.926  -4.465  0.00  0.00     0.062 C 
ATOM     18  C   UNK d   0      -8.701 -16.774  -6.487  0.00  0.00    -0.013 A 
ATOM     19  C   UNK d   0      -7.225 -14.807  -3.804  0.00  0.00     0.067 A 
ATOM     20  N   UNK d   0      -8.075 -13.780  -3.723  0.00  0.00    -0.248 NA
ATOM     21  C   UNK d   0      -6.000 -14.402  -3.136  0.00  0.00    -0.011 A 
ATOM     22  C   UNK d   0      -7.494 -12.733  -3.051  0.00  0.00     0.066 A 
ATOM     23  C   UNK d   0      -8.284 -11.609  -2.860  0.00  0.00     0.062 C 
ATOM     24  C   UNK d   0      -6.162 -13.186  -2.700  0.00  0.00    -0.020 A 
ATOM     25  C   UNK d   0      -9.638 -11.442  -3.191  0.00  0.00     0.041 A 
ATOM     26  N   UNK d   0     -10.345 -11.834  -4.257  0.00  0.00    -0.355 N 
ATOM     27  C   UNK d   0     -10.477 -10.764  -2.280  0.00  0.00    -0.022 A 
ATOM     28  C   UNK d   0     -11.610 -11.432  -4.055  0.00  0.00     0.042 A 
ATOM     29  H   UNK d   0      -9.951 -12.367  -5.157  0.00  0.00     0.166 HD
ATOM     30  C   UNK d   0     -12.763 -11.580  -4.842  0.00  0.00     0.062 C 
ATOM     31  C   UNK d   0     -11.727 -10.754  -2.818  0.00  0.00    -0.013 A 
ATOM     32  C   UNK d   0     -13.159 -12.686  -5.578  0.00  0.00     0.066 A 
BRANCH   8  33
ATOM     33  C   UNK d   0     -15.096 -14.994  -7.684  0.00  0.00     0.151 C 
BRANCH  33  34
ATOM     34  C   UNK d   0     -14.850 -14.788  -9.123  0.00  0.00     0.143 C 
ATOM     35  O   UNK d   0     -14.080 -13.899  -9.516  0.00  0.00    -0.650 OA
BRANCH  34  36
ATOM     36  O   UNK d   0     -15.485 -15.593 -10.039  0.00  0.00    -0.776 OA
ATOM     37  H   UNK d   0     -15.092 -16.504 -10.313  0.00  0.00     0.167 HD
ENDBRANCH  34  36
ENDBRANCH  33  34
ENDBRANCH   8  33
BRANCH  31  38
ATOM     38  C   UNK d   0     -12.962 -10.149  -2.192  0.00  0.00     0.151 C 
BRANCH  38  39
ATOM     39  C   UNK d   0     -13.108  -8.740  -2.487  0.00  0.00     0.143 C 
ATOM     40  O   UNK d   0     -12.888  -7.856  -1.640  0.00  0.00    -0.650 OA
BRANCH  39  41
ATOM     41  O   UNK d   0     -13.509  -8.344  -3.763  0.00  0.00    -0.776 OA
ATOM     42  H   UNK d   0     -12.839  -7.792  -4.307  0.00  0.00     0.167 HD
ENDBRANCH  39  41
ENDBRANCH  38  39
ENDBRANCH  31  38
BRANCH  27  43
ATOM     43  C   UNK d   0     -10.139 -10.139  -0.949  0.00  0.00     0.052 C 
BRANCH  43  44
ATOM     44  C   UNK d   0      -9.548  -8.773  -1.071  0.00  0.00     0.115 C 
BRANCH  44  45
ATOM     45  C   UNK d   0      -8.213  -8.828  -0.420  0.00  0.00     0.139 C 
ATOM     46  O   UNK d   0      -7.195  -8.821  -1.155  0.00  0.00    -0.650 OA
BRANCH  45  47
ATOM     47  O   UNK d   0      -8.051  -8.880   0.948  0.00  0.00    -0.776 OA
ATOM     48  H   UNK d   0      -7.268  -9.380   1.400  0.00  0.00     0.167 HD
ENDBRANCH  45  47
ENDBRANCH  44  45
ENDBRANCH  43  44
ENDBRANCH  27  43
BRANCH  24  49
ATOM     49  C   UNK d   0      -5.182 -12.401  -1.931  0.00  0.00     0.052 C 
BRANCH  49  50
ATOM     50  C   UNK d   0      -5.808 -11.878  -0.663  0.00  0.00     0.115 C 
BRANCH  50  51
ATOM     51  C   UNK d   0      -5.970 -12.820   0.436  0.00  0.00     0.139 C 
ATOM     52  O   UNK d   0      -5.070 -13.033   1.282  0.00  0.00    -0.650 OA
BRANCH  51  53
ATOM     53  O   UNK d   0      -7.159 -13.521   0.570  0.00  0.00    -0.776 OA
ATOM     54  H   UNK d   0      -8.010 -13.074   0.277  0.00  0.00     0.167 HD
ENDBRANCH  51  53
ENDBRANCH  50  51
ENDBRANCH  49  50
ENDBRANCH  24  49
BRANCH  21  55
ATOM     55  C   UNK d   0      -4.797 -15.275  -2.997  0.00  0.00     0.151 C 
BRANCH  55  56
ATOM     56  C   UNK d   0      -4.827 -16.064  -1.756  0.00  0.00     0.143 C 
ATOM     57  O   UNK d   0      -5.585 -15.794  -0.804  0.00  0.00    -0.650 OA
BRANCH  56  58
ATOM     58  O   UNK d   0      -3.964 -17.154  -1.659  0.00  0.00    -0.776 OA
ATOM     59  H   UNK d   0      -3.315 -17.127  -0.852  0.00  0.00     0.167 HD
ENDBRANCH  56  58
ENDBRANCH  55  56
ENDBRANCH  21  55
BRANCH  18  60
ATOM     60  C   UNK d   0      -7.485 -17.389  -7.134  0.00  0.00     0.151 C 
BRANCH  60  61
ATOM     61  C   UNK d   0      -6.868 -16.320  -7.933  0.00  0.00     0.143 C 
ATOM     62  O   UNK d   0      -7.191 -15.957  -9.065  0.00  0.00    -0.650 OA
BRANCH  61  63
ATOM     63  O   UNK d   0      -5.788 -15.649  -7.310  0.00  0.00    -0.776 OA
ATOM     64  H   UNK d   0      -4.837 -15.914  -7.496  0.00  0.00     0.167 HD
ENDBRANCH  61  63
ENDBRANCH  60  61
ENDBRANCH  18  60
BRANCH  14  65
ATOM     65  C   UNK d   0     -10.286 -17.512  -8.295  0.00  0.00     0.052 C 
BRANCH  65  66
ATOM     66  C   UNK d   0     -10.898 -18.847  -8.059  0.00  0.00     0.115 C 
BRANCH  66  67
ATOM     67  C   UNK d   0     -11.008 -19.781  -9.144  0.00  0.00     0.139 C 
ATOM     68  O   UNK d   0     -10.496 -19.465 -10.280  0.00  0.00    -0.650 OA
BRANCH  67  69
ATOM     69  O   UNK d   0     -11.618 -21.035  -9.132  0.00  0.00    -0.776 OA
ATOM     70  H   UNK d   0     -11.021 -21.821  -8.839  0.00  0.00     0.167 HD
ENDBRANCH  67  69
ENDBRANCH  66  67
ENDBRANCH  65  66
ENDBRANCH  14  65
ENDBRANCH   6   7
ENDBRANCH   5   6
ENDBRANCH   2   5
TORSDOF 28
ENDMDL
MODEL 4
REMARK VINA RESULT:      -9.9      1.874      7.269
REMARK  28 active torsions:
REMARK  status: ('A' for Active; 'I' for Inactive)
REMARK    1  A    between atoms: C_2  and  O_3 
REMARK    2  A    between atoms: C_2  and  C_4 
REMARK    3  A    between atoms: C_4  and  C_5 
REMARK    4  A    between atoms: C_5  and  C_6 
REMARK    5  A    between atoms: C_7  and  C_8 
REMARK    6  A    between atoms: C_8  and  C_9 
REMARK    7  A    between atoms: C_9  and  O_11 
REMARK    8  A    between atoms: C_28  and  C_29 
REMARK    9  A    between atoms: C_29  and  C_30 
REMARK   10  A    between atoms: C_30  and  O_32 
REMARK   11  A    between atoms: C_33  and  C_34 
REMARK   12  A    between atoms: C_34  and  C_35 
REMARK   13  A    between atoms: C_35  and  C_36 
REMARK   14  A    between atoms: C_36  and  O_38 
REMARK   15  A    between atoms: C_39  and  C_40 
REMARK   16  A    between atoms: C_40  and  C_41 
REMARK   17  A    between atoms: C_41  and  C_42 
REMARK   18  A    between atoms: C_42  and  O_44 
REMARK   19  A    between atoms: C_45  and  C_46 
REMARK   20  A    between atoms: C_46  and  C_47 
REMARK   21  A    between atoms: C_47  and  O_49 
REMARK   22  A    between atoms: C_50  and  C_51 
REMARK   23  A    between atoms: C_51  and  C_52 
REMARK   24  A    between atoms: C_52  and  O_54 
REMARK   25  A    between atoms: C_55  and  C_56 
REMARK   26  A    between atoms: C_56  and  C_57 
REMARK   27  A    between atoms: C_57  and  C_58 
REMARK   28  A    between atoms: C_58  and  O_60 
ROOT
ATOM      1  O   UNK d   0     -31.300 -25.987  11.221  0.00  0.00    -0.650 OA
ATOM      2  C   UNK d   0     -31.532 -24.819  10.836  0.00  0.00     0.139 C 
ENDROOT
BRANCH   2   3
ATOM      3  O   UNK d   0     -32.223 -24.620   9.665  0.00  0.00    -0.776 OA
ATOM      4  H   UNK d   0     -31.731 -24.454   8.784  0.00  0.00     0.167 HD
ENDBRANCH   2   3
BRANCH   2   5
ATOM      5  C   UNK d   0     -31.060 -23.658  11.643  0.00  0.00     0.115 C 
BRANCH   5   6
ATOM      6  C   UNK d   0     -31.876 -23.536  12.901  0.00  0.00     0.052 C 
BRANCH   6   7
ATOM      7  C   UNK d   0     -32.695 -22.268  12.942  0.00  0.00    -0.020 A 
ATOM      8  C   UNK d   0     -32.471 -21.196  13.657  0.00  0.00    -0.011 A 
ATOM      9  C   UNK d   0     -33.529 -20.241  13.372  0.00  0.00     0.067 A 
ATOM     10  C   UNK d   0     -33.852 -18.937  13.777  0.00  0.00     0.062 C 
ATOM     11  N   UNK d   0     -34.357 -20.817  12.476  0.00  0.00    -0.248 NA
ATOM     12  C   UNK d   0     -34.768 -18.066  13.178  0.00  0.00     0.041 A 
ATOM     13  N   UNK d   0     -36.005 -18.279  12.688  0.00  0.00    -0.355 N 
ATOM     14  C   UNK d   0     -34.394 -16.727  12.962  0.00  0.00    -0.022 A 
ATOM     15  C   UNK d   0     -36.421 -17.113  12.160  0.00  0.00     0.042 A 
ATOM     16  H   UNK d   0     -36.579 -19.231  12.733  0.00  0.00     0.166 HD
ATOM     17  C   UNK d   0     -37.633 -16.780  11.523  0.00  0.00     0.062 C 
ATOM     18  C   UNK d   0     -35.438 -16.116  12.312  0.00  0.00    -0.013 A 
ATOM     19  C   UNK d   0     -38.326 -17.480  10.569  0.00  0.00     0.067 A 
ATOM     20  N   UNK d   0     -37.933 -18.734  10.334  0.00  0.00    -0.248 NA
ATOM     21  C   UNK d   0     -39.439 -17.205   9.675  0.00  0.00    -0.011 A 
ATOM     22  C   UNK d   0     -38.707 -19.300   9.350  0.00  0.00     0.066 A 
ATOM     23  C   UNK d   0     -38.430 -20.621   9.032  0.00  0.00     0.062 C 
ATOM     24  C   UNK d   0     -39.653 -18.273   8.961  0.00  0.00    -0.020 A 
ATOM     25  C   UNK d   0     -37.513 -21.482   9.655  0.00  0.00     0.041 A 
ATOM     26  N   UNK d   0     -36.279 -21.274  10.128  0.00  0.00    -0.355 N 
ATOM     27  C   UNK d   0     -37.892 -22.825   9.875  0.00  0.00    -0.022 A 
ATOM     28  C   UNK d   0     -35.858 -22.438  10.647  0.00  0.00     0.042 A 
ATOM     29  H   UNK d   0     -35.699 -20.320  10.073  0.00  0.00     0.166 HD
ATOM     30  C   UNK d   0     -34.652 -22.786  11.276  0.00  0.00     0.062 C 
ATOM     31  C   UNK d   0     -36.851 -23.436  10.503  0.00  0.00    -0.013 A 
ATOM     32  C   UNK d   0     -33.910 -22.037  12.176  0.00  0.00     0.066 A 
BRANCH   8  33
ATOM     33  C   UNK d   0     -31.355 -20.975  14.596  0.00  0.00     0.151 C 
BRANCH  33  34
ATOM     34  C   UNK d   0     -30.919 -19.568  14.645  0.00  0.00     0.143 C 
ATOM     35  O   UNK d   0     -30.942 -18.931  15.707  0.00  0.00    -0.650 OA
BRANCH  34  36
ATOM     36  O   UNK d   0     -30.484 -18.956  13.492  0.00  0.00    -0.776 OA
ATOM     37  H   UNK d   0     -29.623 -18.392  13.480  0.00  0.00     0.167 HD
ENDBRANCH  34  36
ENDBRANCH  33  34
ENDBRANCH   8  33
BRANCH  31  38
ATOM     38  C   UNK d   0     -36.804 -24.878  10.953  0.00  0.00     0.151 C 
BRANCH  38  39
ATOM     39  C   UNK d   0     -35.521 -25.502  10.705  0.00  0.00     0.143 C 
ATOM     40  O   UNK d   0     -35.062 -25.647   9.558  0.00  0.00    -0.650 OA
BRANCH  39  41
ATOM     41  O   UNK d   0     -34.762 -25.961  11.781  0.00  0.00    -0.776 OA
ATOM     42  H   UNK d   0     -35.276 -26.246  12.620  0.00  0.00     0.167 HD
ENDBRANCH  39  41
ENDBRANCH  38  39
ENDBRANCH  31  38
BRANCH  27  43
ATOM     43  C   UNK d   0     -39.176 -23.530   9.516  0.00  0.00     0.052 C 
BRANCH  43  44
ATOM     44  C   UNK d   0     -40.165 -23.563  10.637  0.00  0.00     0.115 C 
BRANCH  44  45
ATOM     45  C   UNK d   0     -40.942 -22.299  10.554  0.00  0.00     0.139 C 
ATOM     46  O   UNK d   0     -41.661 -22.111   9.541  0.00  0.00    -0.650 OA
BRANCH  45  47
ATOM     47  O   UNK d   0     -40.910 -21.336  11.540  0.00  0.00    -0.776 OA
ATOM     48  H   UNK d   0     -40.228 -20.560  11.543  0.00  0.00     0.167 HD
ENDBRANCH  45  47
ENDBRANCH  44  45
ENDBRANCH  43  44
ENDBRANCH  27  43
BRANCH  24  49
ATOM     49  C   UNK d   0     -40.714 -18.446   7.954  0.00  0.00     0.052 C 
BRANCH  49  50
ATOM     50  C   UNK d   0     -40.225 -18.010   6.597  0.00  0.00     0.115 C 
BRANCH  50  51
ATOM     51  C   UNK d   0     -41.088 -17.120   5.833  0.00  0.00     0.139 C 
ATOM     52  O   UNK d   0     -40.673 -16.056   5.315  0.00  0.00    -0.650 OA
BRANCH  51  53
ATOM     53  O   UNK d   0     -42.425 -17.442   5.660  0.00  0.00    -0.776 OA
ATOM     54  H   UNK d   0     -43.107 -16.710   5.760  0.00  0.00     0.167 HD
ENDBRANCH  51  53
ENDBRANCH  50  51
ENDBRANCH  49  50
ENDBRANCH  24  49
BRANCH  21  55
ATOM     55  C   UNK d   0     -40.173 -15.907   9.630  0.00  0.00     0.151 C 
BRANCH  55  56
ATOM     56  C   UNK d   0     -41.263 -15.855  10.616  0.00  0.00     0.143 C 
ATOM     57  O   UNK d   0     -42.022 -16.820  10.835  0.00  0.00    -0.650 OA
BRANCH  56  58
ATOM     58  O   UNK d   0     -41.441 -14.669  11.326  0.00  0.00    -0.776 OA
ATOM     59  H   UNK d   0     -41.282 -13.804  10.778  0.00  0.00     0.167 HD
ENDBRANCH  56  58
ENDBRANCH  55  56
ENDBRANCH  21  55
BRANCH  18  60
ATOM     60  C   UNK d   0     -35.458 -14.672  11.878  0.00  0.00     0.151 C 
BRANCH  60  61
ATOM     61  C   UNK d   0     -35.392 -14.691  10.408  0.00  0.00     0.143 C 
ATOM     62  O   UNK d   0     -34.445 -15.060   9.713  0.00  0.00    -0.650 OA
BRANCH  61  63
ATOM     63  O   UNK d   0     -36.557 -14.232   9.747  0.00  0.00    -0.776 OA
ATOM     64  H   UNK d   0     -37.200 -14.877   9.323  0.00  0.00     0.167 HD
ENDBRANCH  61  63
ENDBRANCH  60  61
ENDBRANCH  18  60
BRANCH  14  65
ATOM     65  C   UNK d   0     -33.178 -15.965  13.406  0.00  0.00     0.052 C 
BRANCH  65  66
ATOM     66  C   UNK d   0     -32.200 -15.739  12.307  0.00  0.00     0.115 C 
BRANCH  66  67
ATOM     67  C   UNK d   0     -31.337 -14.592  12.347  0.00  0.00     0.139 C 
ATOM     68  O   UNK d   0     -31.245 -13.857  11.296  0.00  0.00    -0.650 OA
BRANCH  67  69
ATOM     69  O   UNK d   0     -30.554 -14.150  13.413  0.00  0.00    -0.776 OA
ATOM     70  H   UNK d   0     -29.543 -14.080  13.228  0.00  0.00     0.167 HD
ENDBRANCH  67  69
ENDBRANCH  66  67
ENDBRANCH  65  66
ENDBRANCH  14  65
ENDBRANCH   6   7
ENDBRANCH   5   6
ENDBRANCH   2   5
TORSDOF 28
ENDMDL
MODEL 5
REMARK VINA RESULT:      -9.7      2.169     10.385
REMARK  28 active torsions:
REMARK  status: ('A' for Active; 'I' for Inactive)
REMARK    1  A    between atoms: C_2  and  O_3 
REMARK    2  A    between atoms: C_2  and  C_4 
REMARK    3  A    between atoms: C_4  and  C_5 
REMARK    4  A    between atoms: C_5  and  C_6 
REMARK    5  A    between atoms: C_7  and  C_8 
REMARK    6  A    between atoms: C_8  and  C_9 
REMARK    7  A    between atoms: C_9  and  O_11 
REMARK    8  A    between atoms: C_28  and  C_29 
REMARK    9  A    between atoms: C_29  and  C_30 
REMARK   10  A    between atoms: C_30  and  O_32 
REMARK   11  A    between atoms: C_33  and  C_34 
REMARK   12  A    between atoms: C_34  and  C_35 
REMARK   13  A    between atoms: C_35  and  C_36 
REMARK   14  A    between atoms: C_36  and  O_38 
REMARK   15  A    between atoms: C_39  and  C_40 
REMARK   16  A    between atoms: C_40  and  C_41 
REMARK   17  A    between atoms: C_41  and  C_42 
REMARK   18  A    between atoms: C_42  and  O_44 
REMARK   19  A    between atoms: C_45  and  C_46 
REMARK   20  A    between atoms: C_46  and  C_47 
REMARK   21  A    between atoms: C_47  and  O_49 
REMARK   22  A    between atoms: C_50  and  C_51 
REMARK   23  A    between atoms: C_51  and  C_52 
REMARK   24  A    between atoms: C_52  and  O_54 
REMARK   25  A    between atoms: C_55  and  C_56 
REMARK   26  A    between atoms: C_56  and  C_57 
REMARK   27  A    between atoms: C_57  and  C_58 
REMARK   28  A    between atoms: C_58  and  O_60 
ROOT
ATOM      1  O   UNK d   0     -41.870 -22.092   7.360  0.00  0.00    -0.650 OA
ATOM      2  C   UNK d   0     -41.753 -21.746   8.556  0.00  0.00     0.139 C 
ENDROOT
BRANCH   2   3
ATOM      3  O   UNK d   0     -42.772 -21.049   9.160  0.00  0.00    -0.776 OA
ATOM      4  H   UNK d   0     -42.628 -20.100   9.509  0.00  0.00     0.167 HD
ENDBRANCH   2   3
BRANCH   2   5
ATOM      5  C   UNK d   0     -40.516 -22.086   9.316  0.00  0.00     0.115 C 
BRANCH   5   6
ATOM      6  C   UNK d   0     -39.313 -21.989   8.417  0.00  0.00     0.052 C 
BRANCH   6   7
ATOM      7  C   UNK d   0     -38.399 -20.847   8.791  0.00  0.00    -0.020 A 
ATOM      8  C   UNK d   0     -38.467 -19.604   8.386  0.00  0.00    -0.011 A 
ATOM      9  C   UNK d   0     -37.372 -18.874   9.004  0.00  0.00     0.067 A 
ATOM     10  C   UNK d   0     -36.910 -17.549   9.001  0.00  0.00     0.062 C 
ATOM     11  N   UNK d   0     -36.685 -19.752   9.765  0.00  0.00    -0.248 NA
ATOM     12  C   UNK d   0     -35.994 -16.970   9.885  0.00  0.00     0.041 A 
ATOM     13  N   UNK d   0     -34.833 -17.432  10.388  0.00  0.00    -0.355 N 
ATOM     14  C   UNK d   0     -36.284 -15.708  10.435  0.00  0.00    -0.022 A 
ATOM     15  C   UNK d   0     -34.383 -16.499  11.249  0.00  0.00     0.042 A 
ATOM     16  H   UNK d   0     -34.332 -18.389  10.126  0.00  0.00     0.166 HD
ATOM     17  C   UNK d   0     -33.220 -16.475  12.043  0.00  0.00     0.062 C 
ATOM     18  C   UNK d   0     -35.266 -15.403  11.305  0.00  0.00    -0.013 A 
ATOM     19  C   UNK d   0     -32.681 -17.472  12.815  0.00  0.00     0.067 A 
ATOM     20  N   UNK d   0     -33.191 -18.697  12.662  0.00  0.00    -0.248 NA
ATOM     21  C   UNK d   0     -31.646 -17.563  13.831  0.00  0.00    -0.011 A 
ATOM     22  C   UNK d   0     -32.567 -19.582  13.507  0.00  0.00     0.066 A 
ATOM     23  C   UNK d   0     -32.976 -20.905  13.425  0.00  0.00     0.062 C 
ATOM     24  C   UNK d   0     -31.587 -18.800  14.235  0.00  0.00    -0.020 A 
ATOM     25  C   UNK d   0     -33.888 -21.469  12.520  0.00  0.00     0.041 A 
ATOM     26  N   UNK d   0     -35.049 -21.016  12.032  0.00  0.00    -0.355 N 
ATOM     27  C   UNK d   0     -33.594 -22.734  11.966  0.00  0.00    -0.022 A 
ATOM     28  C   UNK d   0     -35.504 -21.949  11.180  0.00  0.00     0.042 A 
ATOM     29  H   UNK d   0     -35.557 -20.059  12.305  0.00  0.00     0.166 HD
ATOM     30  C   UNK d   0     -36.665 -21.990  10.391  0.00  0.00     0.062 C 
ATOM     31  C   UNK d   0     -34.611 -23.045  11.116  0.00  0.00    -0.013 A 
ATOM     32  C   UNK d   0     -37.252 -20.956   9.681  0.00  0.00     0.066 A 
BRANCH   8  33
ATOM     33  C   UNK d   0     -39.462 -19.027   7.464  0.00  0.00     0.151 C 
BRANCH  33  34
ATOM     34  C   UNK d   0     -40.538 -18.304   8.165  0.00  0.00     0.143 C 
ATOM     35  O   UNK d   0     -41.239 -17.473   7.571  0.00  0.00    -0.650 OA
BRANCH  34  36
ATOM     36  O   UNK d   0     -40.765 -18.558   9.498  0.00  0.00    -0.776 OA
ATOM     37  H   UNK d   0     -41.606 -19.061   9.811  0.00  0.00     0.167 HD
ENDBRANCH  34  36
ENDBRANCH  33  34
ENDBRANCH   8  33
BRANCH  31  38
ATOM     38  C   UNK d   0     -34.724 -24.300  10.283  0.00  0.00     0.151 C 
BRANCH  38  39
ATOM     39  C   UNK d   0     -35.341 -25.396  10.999  0.00  0.00     0.143 C 
ATOM     40  O   UNK d   0     -36.569 -25.588  10.994  0.00  0.00    -0.650 OA
BRANCH  39  41
ATOM     41  O   UNK d   0     -34.540 -26.278  11.725  0.00  0.00    -0.776 OA
ATOM     42  H   UNK d   0     -34.035 -26.990  11.189  0.00  0.00     0.167 HD
ENDBRANCH  39  41
ENDBRANCH  38  39
ENDBRANCH  31  38
BRANCH  27  43
ATOM     43  C   UNK d   0     -32.411 -23.636  12.211  0.00  0.00     0.052 C 
BRANCH  43  44
ATOM     44  C   UNK d   0     -31.322 -23.470  11.201  0.00  0.00     0.115 C 
BRANCH  44  45
ATOM     45  C   UNK d   0     -31.334 -24.695  10.359  0.00  0.00     0.139 C 
ATOM     46  O   UNK d   0     -31.588 -25.792  10.914  0.00  0.00    -0.650 OA
BRANCH  45  47
ATOM     47  O   UNK d   0     -31.084 -24.672   9.004  0.00  0.00    -0.776 OA
ATOM     48  H   UNK d   0     -31.446 -23.933   8.380  0.00  0.00     0.167 HD
ENDBRANCH  45  47
ENDBRANCH  44  45
ENDBRANCH  43  44
ENDBRANCH  27  43
BRANCH  24  49
ATOM     49  C   UNK d   0     -30.649 -19.344  15.232  0.00  0.00     0.052 C 
BRANCH  49  50
ATOM     50  C   UNK d   0     -30.975 -18.811  16.604  0.00  0.00     0.115 C 
BRANCH  50  51
ATOM     51  C   UNK d   0     -32.210 -19.274  17.221  0.00  0.00     0.139 C 
ATOM     52  O   UNK d   0     -32.795 -20.323  16.861  0.00  0.00    -0.650 OA
BRANCH  51  53
ATOM     53  O   UNK d   0     -32.781 -18.538  18.249  0.00  0.00    -0.776 OA
ATOM     54  H   UNK d   0     -32.333 -17.683  18.527  0.00  0.00     0.167 HD
ENDBRANCH  51  53
ENDBRANCH  50  51
ENDBRANCH  49  50
ENDBRANCH  24  49
BRANCH  21  55
ATOM     55  C   UNK d   0     -30.822 -16.407  14.290  0.00  0.00     0.151 C 
BRANCH  55  56
ATOM     56  C   UNK d   0     -30.942 -15.252  13.387  0.00  0.00     0.143 C 
ATOM     57  O   UNK d   0     -30.256 -15.130  12.352  0.00  0.00    -0.650 OA
BRANCH  56  58
ATOM     58  O   UNK d   0     -31.866 -14.262  13.717  0.00  0.00    -0.776 OA
ATOM     59  H   UNK d   0     -31.699 -13.342  13.271  0.00  0.00     0.167 HD
ENDBRANCH  56  58
ENDBRANCH  55  56
ENDBRANCH  21  55
BRANCH  18  60
ATOM     60  C   UNK d   0     -35.178 -14.139  12.123  0.00  0.00     0.151 C 
BRANCH  60  61
ATOM     61  C   UNK d   0     -34.277 -13.242  11.384  0.00  0.00     0.143 C 
ATOM     62  O   UNK d   0     -33.133 -13.490  11.001  0.00  0.00    -0.650 OA
BRANCH  61  63
ATOM     63  O   UNK d   0     -34.806 -11.961  11.095  0.00  0.00    -0.776 OA
ATOM     64  H   UNK d   0     -34.202 -11.172  10.949  0.00  0.00     0.167 HD
ENDBRANCH  61  63
ENDBRANCH  60  61
ENDBRANCH  18  60
BRANCH  14  65
ATOM     65  C   UNK d   0     -37.387 -14.734  10.130  0.00  0.00     0.052 C 
BRANCH  65  66
ATOM     66  C   UNK d   0     -38.720 -15.202  10.594  0.00  0.00     0.115 C 
BRANCH  66  67
ATOM     67  C   UNK d   0     -39.878 -14.976   9.776  0.00  0.00     0.139 C 
ATOM     68  O   UNK d   0     -41.007 -14.766  10.355  0.00  0.00    -0.650 OA
BRANCH  67  69
ATOM     69  O   UNK d   0     -39.948 -14.953   8.383  0.00  0.00    -0.776 OA
ATOM     70  H   UNK d   0     -39.462 -14.170   7.923  0.00  0.00     0.167 HD
ENDBRANCH  67  69
ENDBRANCH  66  67
ENDBRANCH  65  66
ENDBRANCH  14  65
ENDBRANCH   6   7
ENDBRANCH   5   6
ENDBRANCH   2   5
TORSDOF 28
ENDMDL
MODEL 6
REMARK VINA RESULT:      -9.2     28.214     32.182
REMARK  28 active torsions:
REMARK  status: ('A' for Active; 'I' for Inactive)
REMARK    1  A    between atoms: C_2  and  O_3 
REMARK    2  A    between atoms: C_2  and  C_4 
REMARK    3  A    between atoms: C_4  and  C_5 
REMARK    4  A    between atoms: C_5  and  C_6 
REMARK    5  A    between atoms: C_7  and  C_8 
REMARK    6  A    between atoms: C_8  and  C_9 
REMARK    7  A    between atoms: C_9  and  O_11 
REMARK    8  A    between atoms: C_28  and  C_29 
REMARK    9  A    between atoms: C_29  and  C_30 
REMARK   10  A    between atoms: C_30  and  O_32 
REMARK   11  A    between atoms: C_33  and  C_34 
REMARK   12  A    between atoms: C_34  and  C_35 
REMARK   13  A    between atoms: C_35  and  C_36 
REMARK   14  A    between atoms: C_36  and  O_38 
REMARK   15  A    between atoms: C_39  and  C_40 
REMARK   16  A    between atoms: C_40  and  C_41 
REMARK   17  A    between atoms: C_41  and  C_42 
REMARK   18  A    between atoms: C_42  and  O_44 
REMARK   19  A    between atoms: C_45  and  C_46 
REMARK   20  A    between atoms: C_46  and  C_47 
REMARK   21  A    between atoms: C_47  and  O_49 
REMARK   22  A    between atoms: C_50  and  C_51 
REMARK   23  A    between atoms: C_51  and  C_52 
REMARK   24  A    between atoms: C_52  and  O_54 
REMARK   25  A    between atoms: C_55  and  C_56 
REMARK   26  A    between atoms: C_56  and  C_57 
REMARK   27  A    between atoms: C_57  and  C_58 
REMARK   28  A    between atoms: C_58  and  O_60 
ROOT
ATOM      1  O   UNK d   0      -7.396  -8.253  -1.380  0.00  0.00    -0.650 OA
ATOM      2  C   UNK d   0      -7.463  -8.779  -0.246  0.00  0.00     0.139 C 
ENDROOT
BRANCH   2   3
ATOM      3  O   UNK d   0      -6.340  -8.822   0.544  0.00  0.00    -0.776 OA
ATOM      4  H   UNK d   0      -6.287  -9.446   1.351  0.00  0.00     0.167 HD
ENDBRANCH   2   3
BRANCH   2   5
ATOM      5  C   UNK d   0      -8.751  -9.352   0.237  0.00  0.00     0.115 C 
BRANCH   5   6
ATOM      6  C   UNK d   0      -9.907  -8.707  -0.479  0.00  0.00     0.052 C 
BRANCH   6   7
ATOM      7  C   UNK d   0     -10.625  -9.662  -1.402  0.00  0.00    -0.020 A 
ATOM      8  C   UNK d   0     -11.853  -9.574  -1.843  0.00  0.00    -0.011 A 
ATOM      9  C   UNK d   0     -12.104 -10.725  -2.695  0.00  0.00     0.067 A 
ATOM     10  C   UNK d   0     -13.177 -11.200  -3.465  0.00  0.00     0.062 C 
ATOM     11  N   UNK d   0     -10.975 -11.464  -2.712  0.00  0.00    -0.248 NA
ATOM     12  C   UNK d   0     -13.139 -12.193  -4.449  0.00  0.00     0.041 A 
ATOM     13  N   UNK d   0     -12.516 -13.387  -4.480  0.00  0.00    -0.355 N 
ATOM     14  C   UNK d   0     -13.794 -11.965  -5.673  0.00  0.00    -0.022 A 
ATOM     15  C   UNK d   0     -12.753 -13.918  -5.694  0.00  0.00     0.042 A 
ATOM     16  H   UNK d   0     -11.937 -13.854  -3.653  0.00  0.00     0.166 HD
ATOM     17  C   UNK d   0     -12.340 -15.145  -6.251  0.00  0.00     0.062 C 
ATOM     18  C   UNK d   0     -13.550 -13.055  -6.471  0.00  0.00    -0.013 A 
ATOM     19  C   UNK d   0     -11.103 -15.736  -6.214  0.00  0.00     0.067 A 
ATOM     20  N   UNK d   0     -10.202 -15.201  -5.385  0.00  0.00    -0.248 NA
ATOM     21  C   UNK d   0     -10.457 -16.852  -6.885  0.00  0.00    -0.011 A 
ATOM     22  C   UNK d   0      -9.014 -15.885  -5.468  0.00  0.00     0.066 A 
ATOM     23  C   UNK d   0      -7.996 -15.456  -4.628  0.00  0.00     0.062 C 
ATOM     24  C   UNK d   0      -9.234 -16.931  -6.447  0.00  0.00    -0.020 A 
ATOM     25  C   UNK d   0      -8.059 -14.464  -3.637  0.00  0.00     0.041 A 
ATOM     26  N   UNK d   0      -8.665 -13.271  -3.612  0.00  0.00    -0.355 N 
ATOM     27  C   UNK d   0      -7.405 -14.697  -2.408  0.00  0.00    -0.022 A 
ATOM     28  C   UNK d   0      -8.423 -12.736  -2.406  0.00  0.00     0.042 A 
ATOM     29  H   UNK d   0      -9.237 -12.799  -4.448  0.00  0.00     0.166 HD
ATOM     30  C   UNK d   0      -8.820 -11.513  -1.842  0.00  0.00     0.062 C 
ATOM     31  C   UNK d   0      -7.631 -13.608  -1.622  0.00  0.00    -0.013 A 
ATOM     32  C   UNK d   0     -10.047 -10.878  -1.954  0.00  0.00     0.066 A 
BRANCH   8  33
ATOM     33  C   UNK d   0     -12.829  -8.510  -1.539  0.00  0.00     0.151 C 
BRANCH  33  34
ATOM     34  C   UNK d   0     -13.995  -9.004  -0.785  0.00  0.00     0.143 C 
ATOM     35  O   UNK d   0     -15.123  -8.527  -0.974  0.00  0.00    -0.650 OA
BRANCH  34  36
ATOM     36  O   UNK d   0     -13.826 -10.008   0.140  0.00  0.00    -0.776 OA
ATOM     37  H   UNK d   0     -14.629 -10.419   0.635  0.00  0.00     0.167 HD
ENDBRANCH  34  36
ENDBRANCH  33  34
ENDBRANCH   8  33
BRANCH  31  38
ATOM     38  C   UNK d   0      -7.136 -13.411  -0.208  0.00  0.00     0.151 C 
BRANCH  38  39
ATOM     39  C   UNK d   0      -6.157 -12.351  -0.098  0.00  0.00     0.143 C 
ATOM     40  O   UNK d   0      -5.933 -11.761   0.974  0.00  0.00    -0.650 OA
BRANCH  39  41
ATOM     41  O   UNK d   0      -5.431 -11.968  -1.225  0.00  0.00    -0.776 OA
ATOM     42  H   UNK d   0      -4.448 -11.720  -1.078  0.00  0.00     0.167 HD
ENDBRANCH  39  41
ENDBRANCH  38  39
ENDBRANCH  31  38
BRANCH  27  43
ATOM     43  C   UNK d   0      -6.591 -15.886  -1.965  0.00  0.00     0.052 C 
BRANCH  43  44
ATOM     44  C   UNK d   0      -5.161 -15.553  -1.686  0.00  0.00     0.115 C 
BRANCH  44  45
ATOM     45  C   UNK d   0      -4.617 -14.944  -2.928  0.00  0.00     0.139 C 
ATOM     46  O   UNK d   0      -4.061 -13.821  -2.842  0.00  0.00    -0.650 OA
BRANCH  45  47
ATOM     47  O   UNK d   0      -4.695 -15.560  -4.159  0.00  0.00    -0.776 OA
ATOM     48  H   UNK d   0      -5.442 -15.356  -4.841  0.00  0.00     0.167 HD
ENDBRANCH  45  47
ENDBRANCH  44  45
ENDBRANCH  43  44
ENDBRANCH  27  43
BRANCH  24  49
ATOM     49  C   UNK d   0      -8.237 -17.944  -6.834  0.00  0.00     0.052 C 
BRANCH  49  50
ATOM     50  C   UNK d   0      -7.559 -17.548  -8.121  0.00  0.00     0.115 C 
BRANCH  50  51
ATOM     51  C   UNK d   0      -6.499 -16.552  -8.035  0.00  0.00     0.139 C 
ATOM     52  O   UNK d   0      -6.247 -15.751  -8.966  0.00  0.00    -0.650 OA
BRANCH  51  53
ATOM     53  O   UNK d   0      -5.725 -16.471  -6.888  0.00  0.00    -0.776 OA
ATOM     54  H   UNK d   0      -6.190 -16.491  -5.998  0.00  0.00     0.167 HD
ENDBRANCH  51  53
ENDBRANCH  50  51
ENDBRANCH  49  50
ENDBRANCH  24  49
BRANCH  21  55
ATOM     55  C   UNK d   0     -11.132 -17.725  -7.891  0.00  0.00     0.151 C 
BRANCH  55  56
ATOM     56  C   UNK d   0     -12.407 -18.259  -7.390  0.00  0.00     0.143 C 
ATOM     57  O   UNK d   0     -12.471 -19.196  -6.570  0.00  0.00    -0.650 OA
BRANCH  56  58
ATOM     58  O   UNK d   0     -13.584 -17.681  -7.863  0.00  0.00    -0.776 OA
ATOM     59  H   UNK d   0     -14.110 -17.127  -7.163  0.00  0.00     0.167 HD
ENDBRANCH  56  58
ENDBRANCH  55  56
ENDBRANCH  21  55
BRANCH  18  60
ATOM     60  C   UNK d   0     -14.060 -13.226  -7.880  0.00  0.00     0.151 C 
BRANCH  60  61
ATOM     61  C   UNK d   0     -15.025 -14.335  -7.829  0.00  0.00     0.143 C 
ATOM     62  O   UNK d   0     -15.938 -14.487  -7.017  0.00  0.00    -0.650 OA
BRANCH  61  63
ATOM     63  O   UNK d   0     -14.864 -15.321  -8.832  0.00  0.00    -0.776 OA
ATOM     64  H   UNK d   0     -14.168 -16.040  -8.746  0.00  0.00     0.167 HD
ENDBRANCH  61  63
ENDBRANCH  60  61
ENDBRANCH  18  60
BRANCH  14  65
ATOM     65  C   UNK d   0     -14.704 -10.851  -6.105  0.00  0.00     0.052 C 
BRANCH  65  66
ATOM     66  C   UNK d   0     -16.011 -10.858  -5.394  0.00  0.00     0.115 C 
BRANCH  66  67
ATOM     67  C   UNK d   0     -16.480  -9.661  -4.755  0.00  0.00     0.139 C 
ATOM     68  O   UNK d   0     -17.069  -8.772  -5.474  0.00  0.00    -0.650 OA
BRANCH  67  69
ATOM     69  O   UNK d   0     -16.378  -9.317  -3.407  0.00  0.00    -0.776 OA
ATOM     70  H   UNK d   0     -15.660  -9.822  -2.869  0.00  0.00     0.167 HD
ENDBRANCH  67  69
ENDBRANCH  66  67
ENDBRANCH  65  66
ENDBRANCH  14  65
ENDBRANCH   6   7
ENDBRANCH   5   6
ENDBRANCH   2   5
TORSDOF 28
ENDMDL
MODEL 7
REMARK VINA RESULT:      -8.7      1.886      7.576
REMARK  28 active torsions:
REMARK  status: ('A' for Active; 'I' for Inactive)
REMARK    1  A    between atoms: C_2  and  O_3 
REMARK    2  A    between atoms: C_2  and  C_4 
REMARK    3  A    between atoms: C_4  and  C_5 
REMARK    4  A    between atoms: C_5  and  C_6 
REMARK    5  A    between atoms: C_7  and  C_8 
REMARK    6  A    between atoms: C_8  and  C_9 
REMARK    7  A    between atoms: C_9  and  O_11 
REMARK    8  A    between atoms: C_28  and  C_29 
REMARK    9  A    between atoms: C_29  and  C_30 
REMARK   10  A    between atoms: C_30  and  O_32 
REMARK   11  A    between atoms: C_33  and  C_34 
REMARK   12  A    between atoms: C_34  and  C_35 
REMARK   13  A    between atoms: C_35  and  C_36 
REMARK   14  A    between atoms: C_36  and  O_38 
REMARK   15  A    between atoms: C_39  and  C_40 
REMARK   16  A    between atoms: C_40  and  C_41 
REMARK   17  A    between atoms: C_41  and  C_42 
REMARK   18  A    between atoms: C_42  and  O_44 
REMARK   19  A    between atoms: C_45  and  C_46 
REMARK   20  A    between atoms: C_46  and  C_47 
REMARK   21  A    between atoms: C_47  and  O_49 
REMARK   22  A    between atoms: C_50  and  C_51 
REMARK   23  A    between atoms: C_51  and  C_52 
REMARK   24  A    between atoms: C_52  and  O_54 
REMARK   25  A    between atoms: C_55  and  C_56 
REMARK   26  A    between atoms: C_56  and  C_57 
REMARK   27  A    between atoms: C_57  and  C_58 
REMARK   28  A    between atoms: C_58  and  O_60 
ROOT
ATOM      1  O   UNK d   0     -30.934 -29.005  10.399  0.00  0.00    -0.650 OA
ATOM      2  C   UNK d   0     -31.652 -28.661  11.364  0.00  0.00     0.139 C 
ENDROOT
BRANCH   2   3
ATOM      3  O   UNK d   0     -31.724 -29.471  12.472  0.00  0.00    -0.776 OA
ATOM      4  H   UNK d   0     -32.536 -29.446  13.092  0.00  0.00     0.167 HD
ENDBRANCH   2   3
BRANCH   2   5
ATOM      5  C   UNK d   0     -32.421 -27.386  11.308  0.00  0.00     0.115 C 
BRANCH   5   6
ATOM      6  C   UNK d   0     -31.506 -26.244  10.958  0.00  0.00     0.052 C 
BRANCH   6   7
ATOM      7  C   UNK d   0     -31.975 -24.927  11.528  0.00  0.00    -0.020 A 
ATOM      8  C   UNK d   0     -31.331 -24.137  12.348  0.00  0.00    -0.011 A 
ATOM      9  C   UNK d   0     -32.183 -22.993  12.625  0.00  0.00     0.067 A 
ATOM     10  C   UNK d   0     -32.083 -21.815  13.383  0.00  0.00     0.062 C 
ATOM     11  N   UNK d   0     -33.330 -23.171  11.937  0.00  0.00    -0.248 NA
ATOM     12  C   UNK d   0     -32.906 -20.686  13.307  0.00  0.00     0.041 A 
ATOM     13  N   UNK d   0     -34.243 -20.570  13.201  0.00  0.00    -0.355 N 
ATOM     14  C   UNK d   0     -32.311 -19.412  13.276  0.00  0.00    -0.022 A 
ATOM     15  C   UNK d   0     -34.512 -19.255  13.096  0.00  0.00     0.042 A 
ATOM     16  H   UNK d   0     -34.984 -21.399  13.220  0.00  0.00     0.166 HD
ATOM     17  C   UNK d   0     -35.743 -18.582  12.964  0.00  0.00     0.062 C 
ATOM     18  C   UNK d   0     -33.326 -18.497  13.139  0.00  0.00    -0.013 A 
ATOM     19  C   UNK d   0     -36.807 -18.883  12.153  0.00  0.00     0.067 A 
ATOM     20  N   UNK d   0     -36.786 -20.070  11.542  0.00  0.00    -0.248 NA
ATOM     21  C   UNK d   0     -38.028 -18.211  11.739  0.00  0.00    -0.011 A 
ATOM     22  C   UNK d   0     -37.902 -20.223  10.757  0.00  0.00     0.066 A 
ATOM     23  C   UNK d   0     -38.027 -21.433  10.091  0.00  0.00     0.062 C 
ATOM     24  C   UNK d   0     -38.662 -18.999  10.919  0.00  0.00    -0.020 A 
ATOM     25  C   UNK d   0     -37.195 -22.560  10.191  0.00  0.00     0.041 A 
ATOM     26  N   UNK d   0     -35.865 -22.676  10.281  0.00  0.00    -0.355 N 
ATOM     27  C   UNK d   0     -37.793 -23.838  10.226  0.00  0.00    -0.022 A 
ATOM     28  C   UNK d   0     -35.594 -23.987  10.377  0.00  0.00     0.042 A 
ATOM     29  H   UNK d   0     -35.122 -21.842  10.251  0.00  0.00     0.166 HD
ATOM     30  C   UNK d   0     -34.374 -24.671  10.500  0.00  0.00     0.062 C 
ATOM     31  C   UNK d   0     -36.787 -24.747  10.345  0.00  0.00    -0.013 A 
ATOM     32  C   UNK d   0     -33.268 -24.316  11.256  0.00  0.00     0.066 A 
BRANCH   8  33
ATOM     33  C   UNK d   0     -29.984 -24.352  12.908  0.00  0.00     0.151 C 
BRANCH  33  34
ATOM     34  C   UNK d   0     -29.850 -25.652  13.590  0.00  0.00     0.143 C 
ATOM     35  O   UNK d   0     -29.069 -26.515  13.165  0.00  0.00    -0.650 OA
BRANCH  34  36
ATOM     36  O   UNK d   0     -30.604 -25.908  14.711  0.00  0.00    -0.776 OA
ATOM     37  H   UNK d   0     -30.161 -26.097  15.621  0.00  0.00     0.167 HD
ENDBRANCH  34  36
ENDBRANCH  33  34
ENDBRANCH   8  33
BRANCH  31  38
ATOM     38  C   UNK d   0     -36.947 -26.247  10.435  0.00  0.00     0.151 C 
BRANCH  38  39
ATOM     39  C   UNK d   0     -37.177 -26.706  11.789  0.00  0.00     0.143 C 
ATOM     40  O   UNK d   0     -38.319 -26.918  12.234  0.00  0.00    -0.650 OA
BRANCH  39  41
ATOM     41  O   UNK d   0     -36.090 -26.925  12.634  0.00  0.00    -0.776 OA
ATOM     42  H   UNK d   0     -35.163 -26.951  12.196  0.00  0.00     0.167 HD
ENDBRANCH  39  41
ENDBRANCH  38  39
ENDBRANCH  31  38
BRANCH  27  43
ATOM     43  C   UNK d   0     -39.251 -24.217  10.151  0.00  0.00     0.052 C 
BRANCH  43  44
ATOM     44  C   UNK d   0     -40.024 -23.402   9.166  0.00  0.00     0.115 C 
BRANCH  44  45
ATOM     45  C   UNK d   0     -40.990 -22.590   9.951  0.00  0.00     0.139 C 
ATOM     46  O   UNK d   0     -41.786 -21.849   9.325  0.00  0.00    -0.650 OA
BRANCH  45  47
ATOM     47  O   UNK d   0     -41.049 -22.625  11.328  0.00  0.00    -0.776 OA
ATOM     48  H   UNK d   0     -40.809 -21.813  11.919  0.00  0.00     0.167 HD
ENDBRANCH  45  47
ENDBRANCH  44  45
ENDBRANCH  43  44
ENDBRANCH  27  43
BRANCH  24  49
ATOM     49  C   UNK d   0     -39.965 -18.728  10.288  0.00  0.00     0.052 C 
BRANCH  49  50
ATOM     50  C   UNK d   0     -39.776 -18.285   8.860  0.00  0.00     0.115 C 
BRANCH  50  51
ATOM     51  C   UNK d   0     -40.452 -19.058   7.828  0.00  0.00     0.139 C 
ATOM     52  O   UNK d   0     -41.497 -18.661   7.261  0.00  0.00    -0.650 OA
BRANCH  51  53
ATOM     53  O   UNK d   0     -39.938 -20.287   7.444  0.00  0.00    -0.776 OA
ATOM     54  H   UNK d   0     -40.526 -21.098   7.536  0.00  0.00     0.167 HD
ENDBRANCH  51  53
ENDBRANCH  50  51
ENDBRANCH  49  50
ENDBRANCH  24  49
BRANCH  21  55
ATOM     55  C   UNK d   0     -38.435 -16.854  12.209  0.00  0.00     0.151 C 
BRANCH  55  56
ATOM     56  C   UNK d   0     -38.065 -15.803  11.248  0.00  0.00     0.143 C 
ATOM     57  O   UNK d   0     -38.893 -15.258  10.492  0.00  0.00    -0.650 OA
BRANCH  56  58
ATOM     58  O   UNK d   0     -36.728 -15.414  11.195  0.00  0.00    -0.776 OA
ATOM     59  H   UNK d   0     -36.045 -16.189  11.263  0.00  0.00     0.167 HD
ENDBRANCH  56  58
ENDBRANCH  55  56
ENDBRANCH  21  55
BRANCH  18  60
ATOM     60  C   UNK d   0     -33.136 -17.003  13.054  0.00  0.00     0.151 C 
BRANCH  60  61
ATOM     61  C   UNK d   0     -32.899 -16.706  11.633  0.00  0.00     0.143 C 
ATOM     62  O   UNK d   0     -33.500 -17.176  10.666  0.00  0.00    -0.650 OA
BRANCH  61  63
ATOM     63  O   UNK d   0     -31.863 -15.776  11.376  0.00  0.00    -0.776 OA
ATOM     64  H   UNK d   0     -31.208 -15.519  12.093  0.00  0.00     0.167 HD
ENDBRANCH  61  63
ENDBRANCH  60  61
ENDBRANCH  18  60
BRANCH  14  65
ATOM     65  C   UNK d   0     -30.881 -18.991  13.463  0.00  0.00     0.052 C 
BRANCH  65  66
ATOM     66  C   UNK d   0     -30.662 -18.214  14.712  0.00  0.00     0.115 C 
BRANCH  66  67
ATOM     67  C   UNK d   0     -30.097 -16.896  14.640  0.00  0.00     0.139 C 
ATOM     68  O   UNK d   0     -29.876 -16.262  15.737  0.00  0.00    -0.650 OA
BRANCH  67  69
ATOM     69  O   UNK d   0     -29.741 -16.181  13.497  0.00  0.00    -0.776 OA
ATOM     70  H   UNK d   0     -28.736 -16.164  13.274  0.00  0.00     0.167 HD
ENDBRANCH  67  69
ENDBRANCH  66  67
ENDBRANCH  65  66
ENDBRANCH  14  65
ENDBRANCH   6   7
ENDBRANCH   5   6
ENDBRANCH   2   5
TORSDOF 28
ENDMDL
MODEL 8
REMARK VINA RESULT:      -8.6     28.733     32.188
REMARK  28 active torsions:
REMARK  status: ('A' for Active; 'I' for Inactive)
REMARK    1  A    between atoms: C_2  and  O_3 
REMARK    2  A    between atoms: C_2  and  C_4 
REMARK    3  A    between atoms: C_4  and  C_5 
REMARK    4  A    between atoms: C_5  and  C_6 
REMARK    5  A    between atoms: C_7  and  C_8 
REMARK    6  A    between atoms: C_8  and  C_9 
REMARK    7  A    between atoms: C_9  and  O_11 
REMARK    8  A    between atoms: C_28  and  C_29 
REMARK    9  A    between atoms: C_29  and  C_30 
REMARK   10  A    between atoms: C_30  and  O_32 
REMARK   11  A    between atoms: C_33  and  C_34 
REMARK   12  A    between atoms: C_34  and  C_35 
REMARK   13  A    between atoms: C_35  and  C_36 
REMARK   14  A    between atoms: C_36  and  O_38 
REMARK   15  A    between atoms: C_39  and  C_40 
REMARK   16  A    between atoms: C_40  and  C_41 
REMARK   17  A    between atoms: C_41  and  C_42 
REMARK   18  A    between atoms: C_42  and  O_44 
REMARK   19  A    between atoms: C_45  and  C_46 
REMARK   20  A    between atoms: C_46  and  C_47 
REMARK   21  A    between atoms: C_47  and  O_49 
REMARK   22  A    between atoms: C_50  and  C_51 
REMARK   23  A    between atoms: C_51  and  C_52 
REMARK   24  A    between atoms: C_52  and  O_54 
REMARK   25  A    between atoms: C_55  and  C_56 
REMARK   26  A    between atoms: C_56  and  C_57 
REMARK   27  A    between atoms: C_57  and  C_58 
REMARK   28  A    between atoms: C_58  and  O_60 
ROOT
ATOM      1  O   UNK d   0     -11.791  -9.617   0.070  0.00  0.00    -0.650 OA
ATOM      2  C   UNK d   0     -11.048  -8.622  -0.077  0.00  0.00     0.139 C 
ENDROOT
BRANCH   2   3
ATOM      3  O   UNK d   0     -11.411  -7.421   0.483  0.00  0.00    -0.776 OA
ATOM      4  H   UNK d   0     -11.394  -6.557  -0.063  0.00  0.00     0.167 HD
ENDBRANCH   2   3
BRANCH   2   5
ATOM      5  C   UNK d   0      -9.781  -8.742  -0.854  0.00  0.00     0.115 C 
BRANCH   5   6
ATOM      6  C   UNK d   0      -8.903  -9.804  -0.250  0.00  0.00     0.052 C 
BRANCH   6   7
ATOM      7  C   UNK d   0      -8.436 -10.819  -1.266  0.00  0.00    -0.020 A 
ATOM      8  C   UNK d   0      -7.207 -11.190  -1.517  0.00  0.00    -0.011 A 
ATOM      9  C   UNK d   0      -7.249 -12.182  -2.579  0.00  0.00     0.067 A 
ATOM     10  C   UNK d   0      -6.313 -12.964  -3.272  0.00  0.00     0.062 C 
ATOM     11  N   UNK d   0      -8.545 -12.349  -2.919  0.00  0.00    -0.248 NA
ATOM     12  C   UNK d   0      -6.570 -14.077  -4.080  0.00  0.00     0.041 A 
ATOM     13  N   UNK d   0      -7.523 -14.299  -5.005  0.00  0.00    -0.355 N 
ATOM     14  C   UNK d   0      -5.776 -15.228  -3.925  0.00  0.00    -0.022 A 
ATOM     15  C   UNK d   0      -7.359 -15.564  -5.436  0.00  0.00     0.042 A 
ATOM     16  H   UNK d   0      -8.284 -13.570  -5.361  0.00  0.00     0.166 HD
ATOM     17  C   UNK d   0      -8.079 -16.302  -6.396  0.00  0.00     0.062 C 
ATOM     18  C   UNK d   0      -6.274 -16.179  -4.782  0.00  0.00    -0.013 A 
ATOM     19  C   UNK d   0      -9.436 -16.400  -6.569  0.00  0.00     0.067 A 
ATOM     20  N   UNK d   0     -10.197 -15.545  -5.880  0.00  0.00    -0.248 NA
ATOM     21  C   UNK d   0     -10.333 -17.247  -7.338  0.00  0.00    -0.011 A 
ATOM     22  C   UNK d   0     -11.526 -15.772  -6.142  0.00  0.00     0.066 A 
ATOM     23  C   UNK d   0     -12.430 -14.926  -5.517  0.00  0.00     0.062 C 
ATOM     24  C   UNK d   0     -11.555 -16.877  -7.080  0.00  0.00    -0.020 A 
ATOM     25  C   UNK d   0     -12.150 -13.805  -4.720  0.00  0.00     0.041 A 
ATOM     26  N   UNK d   0     -11.213 -13.590  -3.789  0.00  0.00    -0.355 N 
ATOM     27  C   UNK d   0     -12.945 -12.649  -4.878  0.00  0.00    -0.022 A 
ATOM     28  C   UNK d   0     -11.380 -12.332  -3.351  0.00  0.00     0.042 A 
ATOM     29  H   UNK d   0     -10.456 -14.327  -3.426  0.00  0.00     0.166 HD
ATOM     30  C   UNK d   0     -10.677 -11.588  -2.391  0.00  0.00     0.062 C 
ATOM     31  C   UNK d   0     -12.464 -11.711  -4.017  0.00  0.00    -0.013 A 
ATOM     32  C   UNK d   0      -9.310 -11.558  -2.165  0.00  0.00     0.066 A 
BRANCH   8  33
ATOM     33  C   UNK d   0      -5.982 -10.701  -0.857  0.00  0.00     0.151 C 
BRANCH  33  34
ATOM     34  C   UNK d   0      -5.890  -9.230  -0.846  0.00  0.00     0.143 C 
ATOM     35  O   UNK d   0      -5.527  -8.622   0.172  0.00  0.00    -0.650 OA
BRANCH  34  36
ATOM     36  O   UNK d   0      -6.212  -8.524  -1.982  0.00  0.00    -0.776 OA
ATOM     37  H   UNK d   0      -7.045  -7.920  -2.017  0.00  0.00     0.167 HD
ENDBRANCH  34  36
ENDBRANCH  33  34
ENDBRANCH   8  33
BRANCH  31  38
ATOM     38  C   UNK d   0     -12.991 -10.306  -3.844  0.00  0.00     0.151 C 
BRANCH  38  39
ATOM     39  C   UNK d   0     -14.115 -10.236  -2.935  0.00  0.00     0.143 C 
ATOM     40  O   UNK d   0     -15.162  -9.628  -3.218  0.00  0.00    -0.650 OA
BRANCH  39  41
ATOM     41  O   UNK d   0     -14.036 -10.870  -1.695  0.00  0.00    -0.776 OA
ATOM     42  H   UNK d   0     -13.098 -11.018  -1.312  0.00  0.00     0.167 HD
ENDBRANCH  39  41
ENDBRANCH  38  39
ENDBRANCH  31  38
BRANCH  27  43
ATOM     43  C   UNK d   0     -14.118 -12.410  -5.796  0.00  0.00     0.052 C 
BRANCH  43  44
ATOM     44  C   UNK d   0     -13.958 -11.199  -6.657  0.00  0.00     0.115 C 
BRANCH  44  45
ATOM     45  C   UNK d   0     -15.181 -10.377  -6.465  0.00  0.00     0.139 C 
ATOM     46  O   UNK d   0     -15.173  -9.196  -6.890  0.00  0.00    -0.650 OA
BRANCH  45  47
ATOM     47  O   UNK d   0     -16.316 -10.859  -5.849  0.00  0.00    -0.776 OA
ATOM     48  H   UNK d   0     -16.381 -11.004  -4.828  0.00  0.00     0.167 HD
ENDBRANCH  45  47
ENDBRANCH  44  45
ENDBRANCH  43  44
ENDBRANCH  27  43
BRANCH  24  49
ATOM     49  C   UNK d   0     -12.777 -17.443  -7.675  0.00  0.00     0.052 C 
BRANCH  49  50
ATOM     50  C   UNK d   0     -13.496 -18.309  -6.673  0.00  0.00     0.115 C 
BRANCH  50  51
ATOM     51  C   UNK d   0     -13.624 -19.725  -6.988  0.00  0.00     0.139 C 
ATOM     52  O   UNK d   0     -14.365 -20.149  -7.907  0.00  0.00    -0.650 OA
BRANCH  51  53
ATOM     53  O   UNK d   0     -12.910 -20.659  -6.254  0.00  0.00    -0.776 OA
ATOM     54  H   UNK d   0     -13.025 -20.668  -5.256  0.00  0.00     0.167 HD
ENDBRANCH  51  53
ENDBRANCH  50  51
ENDBRANCH  49  50
ENDBRANCH  24  49
BRANCH  21  55
ATOM     55  C   UNK d   0      -9.876 -18.334  -8.253  0.00  0.00     0.151 C 
BRANCH  55  56
ATOM     56  C   UNK d   0      -9.368 -19.500  -7.514  0.00  0.00     0.143 C 
ATOM     57  O   UNK d   0      -8.220 -19.544  -7.029  0.00  0.00    -0.650 OA
BRANCH  56  58
ATOM     58  O   UNK d   0     -10.221 -20.592  -7.359  0.00  0.00    -0.776 OA
ATOM     59  H   UNK d   0     -10.800 -20.813  -8.189  0.00  0.00     0.167 HD
ENDBRANCH  56  58
ENDBRANCH  55  56
ENDBRANCH  21  55
BRANCH  18  60
ATOM     60  C   UNK d   0      -5.724 -17.575  -4.937  0.00  0.00     0.151 C 
BRANCH  60  61
ATOM     61  C   UNK d   0      -6.590 -18.442  -4.123  0.00  0.00     0.143 C 
ATOM     62  O   UNK d   0      -6.559 -19.671  -4.058  0.00  0.00    -0.650 OA
BRANCH  61  63
ATOM     63  O   UNK d   0      -7.554 -17.765  -3.338  0.00  0.00    -0.776 OA
ATOM     64  H   UNK d   0      -7.826 -16.821  -3.551  0.00  0.00     0.167 HD
ENDBRANCH  61  63
ENDBRANCH  60  61
ENDBRANCH  18  60
BRANCH  14  65
ATOM     65  C   UNK d   0      -4.536 -15.462  -3.111  0.00  0.00     0.052 C 
BRANCH  65  66
ATOM     66  C   UNK d   0      -4.804 -16.183  -1.837  0.00  0.00     0.115 C 
BRANCH  66  67
ATOM     67  C   UNK d   0      -4.957 -15.440  -0.618  0.00  0.00     0.139 C 
ATOM     68  O   UNK d   0      -4.722 -14.175  -0.636  0.00  0.00    -0.650 OA
BRANCH  67  69
ATOM     69  O   UNK d   0      -5.340 -15.922   0.633  0.00  0.00    -0.776 OA
ATOM     70  H   UNK d   0      -5.969 -16.738   0.625  0.00  0.00     0.167 HD
ENDBRANCH  67  69
ENDBRANCH  66  67
ENDBRANCH  65  66
ENDBRANCH  14  65
ENDBRANCH   6   7
ENDBRANCH   5   6
ENDBRANCH   2   5
TORSDOF 28
ENDMDL
MODEL 9
REMARK VINA RESULT:      -8.6      2.036      7.541
REMARK  28 active torsions:
REMARK  status: ('A' for Active; 'I' for Inactive)
REMARK    1  A    between atoms: C_2  and  O_3 
REMARK    2  A    between atoms: C_2  and  C_4 
REMARK    3  A    between atoms: C_4  and  C_5 
REMARK    4  A    between atoms: C_5  and  C_6 
REMARK    5  A    between atoms: C_7  and  C_8 
REMARK    6  A    between atoms: C_8  and  C_9 
REMARK    7  A    between atoms: C_9  and  O_11 
REMARK    8  A    between atoms: C_28  and  C_29 
REMARK    9  A    between atoms: C_29  and  C_30 
REMARK   10  A    between atoms: C_30  and  O_32 
REMARK   11  A    between atoms: C_33  and  C_34 
REMARK   12  A    between atoms: C_34  and  C_35 
REMARK   13  A    between atoms: C_35  and  C_36 
REMARK   14  A    between atoms: C_36  and  O_38 
REMARK   15  A    between atoms: C_39  and  C_40 
REMARK   16  A    between atoms: C_40  and  C_41 
REMARK   17  A    between atoms: C_41  and  C_42 
REMARK   18  A    between atoms: C_42  and  O_44 
REMARK   19  A    between atoms: C_45  and  C_46 
REMARK   20  A    between atoms: C_46  and  C_47 
REMARK   21  A    between atoms: C_47  and  O_49 
REMARK   22  A    between atoms: C_50  and  C_51 
REMARK   23  A    between atoms: C_51  and  C_52 
REMARK   24  A    between atoms: C_52  and  O_54 
REMARK   25  A    between atoms: C_55  and  C_56 
REMARK   26  A    between atoms: C_56  and  C_57 
REMARK   27  A    between atoms: C_57  and  C_58 
REMARK   28  A    between atoms: C_58  and  O_60 
ROOT
ATOM      1  O   UNK d   0     -32.795 -27.279  10.731  0.00  0.00    -0.650 OA
ATOM      2  C   UNK d   0     -33.009 -26.494   9.781  0.00  0.00     0.139 C 
ENDROOT
BRANCH   2   3
ATOM      3  O   UNK d   0     -33.284 -27.003   8.535  0.00  0.00    -0.776 OA
ATOM      4  H   UNK d   0     -32.811 -27.841   8.191  0.00  0.00     0.167 HD
ENDBRANCH   2   3
BRANCH   2   5
ATOM      5  C   UNK d   0     -32.962 -25.021  10.003  0.00  0.00     0.115 C 
BRANCH   5   6
ATOM      6  C   UNK d   0     -33.449 -24.691  11.388  0.00  0.00     0.052 C 
BRANCH   6   7
ATOM      7  C   UNK d   0     -33.844 -23.240  11.535  0.00  0.00    -0.020 A 
ATOM      8  C   UNK d   0     -33.191 -22.295  12.160  0.00  0.00    -0.011 A 
ATOM      9  C   UNK d   0     -33.962 -21.068  12.041  0.00  0.00     0.067 A 
ATOM     10  C   UNK d   0     -33.813 -19.735  12.454  0.00  0.00     0.062 C 
ATOM     11  N   UNK d   0     -35.072 -21.360  11.332  0.00  0.00    -0.248 NA
ATOM     12  C   UNK d   0     -34.533 -18.623  12.004  0.00  0.00     0.041 A 
ATOM     13  N   UNK d   0     -35.847 -18.458  11.756  0.00  0.00    -0.355 N 
ATOM     14  C   UNK d   0     -33.834 -17.447  11.677  0.00  0.00    -0.022 A 
ATOM     15  C   UNK d   0     -35.998 -17.210  11.274  0.00  0.00     0.042 A 
ATOM     16  H   UNK d   0     -36.653 -19.203  11.937  0.00  0.00     0.166 HD
ATOM     17  C   UNK d   0     -37.158 -16.526  10.859  0.00  0.00     0.062 C 
ATOM     18  C   UNK d   0     -34.758 -16.546  11.210  0.00  0.00    -0.013 A 
ATOM     19  C   UNK d   0     -38.188 -16.974  10.072  0.00  0.00     0.067 A 
ATOM     20  N   UNK d   0     -38.225 -18.284   9.812  0.00  0.00    -0.248 NA
ATOM     21  C   UNK d   0     -39.319 -16.370   9.388  0.00  0.00    -0.011 A 
ATOM     22  C   UNK d   0     -39.297 -18.580   9.007  0.00  0.00     0.066 A 
ATOM     23  C   UNK d   0     -39.478 -19.917   8.688  0.00  0.00     0.062 C 
ATOM     24  C   UNK d   0     -39.962 -17.314   8.763  0.00  0.00    -0.020 A 
ATOM     25  C   UNK d   0     -38.752 -21.021   9.161  0.00  0.00     0.041 A 
ATOM     26  N   UNK d   0     -37.444 -21.189   9.393  0.00  0.00    -0.355 N 
ATOM     27  C   UNK d   0     -39.454 -22.200   9.493  0.00  0.00    -0.022 A 
ATOM     28  C   UNK d   0     -37.289 -22.436   9.866  0.00  0.00     0.042 A 
ATOM     29  H   UNK d   0     -36.634 -20.444   9.200  0.00  0.00     0.166 HD
ATOM     30  C   UNK d   0     -36.141 -23.133  10.274  0.00  0.00     0.062 C 
ATOM     31  C   UNK d   0     -38.537 -23.100   9.940  0.00  0.00    -0.013 A 
ATOM     32  C   UNK d   0     -35.061 -22.651  10.997  0.00  0.00     0.066 A 
BRANCH   8  33
ATOM     33  C   UNK d   0     -31.906 -22.428  12.871  0.00  0.00     0.151 C 
BRANCH  33  34
ATOM     34  C   UNK d   0     -32.022 -22.160  14.315  0.00  0.00     0.143 C 
ATOM     35  O   UNK d   0     -32.571 -22.974  15.072  0.00  0.00    -0.650 OA
BRANCH  34  36
ATOM     36  O   UNK d   0     -31.514 -20.989  14.828  0.00  0.00    -0.776 OA
ATOM     37  H   UNK d   0     -31.137 -20.255  14.212  0.00  0.00     0.167 HD
ENDBRANCH  34  36
ENDBRANCH  33  34
ENDBRANCH   8  33
BRANCH  31  38
ATOM     38  C   UNK d   0     -38.826 -24.503  10.422  0.00  0.00     0.151 C 
BRANCH  38  39
ATOM     39  C   UNK d   0     -39.901 -24.553  11.391  0.00  0.00     0.143 C 
ATOM     40  O   UNK d   0     -40.640 -23.579  11.616  0.00  0.00    -0.650 OA
BRANCH  39  41
ATOM     41  O   UNK d   0     -40.127 -25.730  12.104  0.00  0.00    -0.776 OA
ATOM     42  H   UNK d   0     -41.037 -25.822  12.566  0.00  0.00     0.167 HD
ENDBRANCH  39  41
ENDBRANCH  38  39
ENDBRANCH  31  38
BRANCH  27  43
ATOM     43  C   UNK d   0     -40.931 -22.494   9.400  0.00  0.00     0.052 C 
BRANCH  43  44
ATOM     44  C   UNK d   0     -41.447 -22.487   7.997  0.00  0.00     0.115 C 
BRANCH  44  45
ATOM     45  C   UNK d   0     -42.363 -21.322   7.887  0.00  0.00     0.139 C 
ATOM     46  O   UNK d   0     -42.163 -20.498   6.960  0.00  0.00    -0.650 OA
BRANCH  45  47
ATOM     47  O   UNK d   0     -43.416 -21.115   8.751  0.00  0.00    -0.776 OA
ATOM     48  H   UNK d   0     -44.000 -21.885   9.117  0.00  0.00     0.167 HD
ENDBRANCH  45  47
ENDBRANCH  44  45
ENDBRANCH  43  44
ENDBRANCH  27  43
BRANCH  24  49
ATOM     49  C   UNK d   0     -41.194 -17.150   7.973  0.00  0.00     0.052 C 
BRANCH  49  50
ATOM     50  C   UNK d   0     -40.942 -17.496   6.528  0.00  0.00     0.115 C 
BRANCH  50  51
ATOM     51  C   UNK d   0     -41.326 -16.507   5.531  0.00  0.00     0.139 C 
ATOM     52  O   UNK d   0     -42.296 -16.670   4.754  0.00  0.00    -0.650 OA
BRANCH  51  53
ATOM     53  O   UNK d   0     -40.600 -15.331   5.416  0.00  0.00    -0.776 OA
ATOM     54  H   UNK d   0     -41.052 -14.531   5.007  0.00  0.00     0.167 HD
ENDBRANCH  51  53
ENDBRANCH  50  51
ENDBRANCH  49  50
ENDBRANCH  24  49
BRANCH  21  55
ATOM     55  C   UNK d   0     -39.642 -14.914   9.434  0.00  0.00     0.151 C 
BRANCH  55  56
ATOM     56  C   UNK d   0     -40.749 -14.623  10.358  0.00  0.00     0.143 C 
ATOM     57  O   UNK d   0     -40.627 -14.685  11.598  0.00  0.00    -0.650 OA
BRANCH  56  58
ATOM     58  O   UNK d   0     -41.978 -14.264   9.807  0.00  0.00    -0.776 OA
ATOM     59  H   UNK d   0     -42.805 -14.633  10.310  0.00  0.00     0.167 HD
ENDBRANCH  56  58
ENDBRANCH  55  56
ENDBRANCH  21  55
BRANCH  18  60
ATOM     60  C   UNK d   0     -34.440 -15.148  10.737  0.00  0.00     0.151 C 
BRANCH  60  61
ATOM     61  C   UNK d   0     -34.969 -14.243  11.769  0.00  0.00     0.143 C 
ATOM     62  O   UNK d   0     -34.782 -14.313  12.984  0.00  0.00    -0.650 OA
BRANCH  61  63
ATOM     63  O   UNK d   0     -35.777 -13.186  11.286  0.00  0.00    -0.776 OA
ATOM     64  H   UNK d   0     -35.526 -12.226  11.447  0.00  0.00     0.167 HD
ENDBRANCH  61  63
ENDBRANCH  60  61
ENDBRANCH  18  60
BRANCH  14  65
ATOM     65  C   UNK d   0     -32.390 -17.080  11.865  0.00  0.00     0.052 C 
BRANCH  65  66
ATOM     66  C   UNK d   0     -32.144 -16.298  13.106  0.00  0.00     0.115 C 
BRANCH  66  67
ATOM     67  C   UNK d   0     -31.415 -15.063  13.036  0.00  0.00     0.139 C 
ATOM     68  O   UNK d   0     -31.076 -14.614  11.880  0.00  0.00    -0.650 OA
BRANCH  67  69
ATOM     69  O   UNK d   0     -31.006 -14.253  14.095  0.00  0.00    -0.776 OA
ATOM     70  H   UNK d   0     -29.988 -14.158  14.220  0.00  0.00     0.167 HD
ENDBRANCH  67  69
ENDBRANCH  66  67
ENDBRANCH  65  66
ENDBRANCH  14  65
ENDBRANCH   6   7
ENDBRANCH   5   6
ENDBRANCH   2   5
TORSDOF 28
ENDMDL
MODEL 10
REMARK VINA RESULT:      -8.5     28.491     32.403
REMARK  28 active torsions:
REMARK  status: ('A' for Active; 'I' for Inactive)
REMARK    1  A    between atoms: C_2  and  O_3 
REMARK    2  A    between atoms: C_2  and  C_4 
REMARK    3  A    between atoms: C_4  and  C_5 
REMARK    4  A    between atoms: C_5  and  C_6 
REMARK    5  A    between atoms: C_7  and  C_8 
REMARK    6  A    between atoms: C_8  and  C_9 
REMARK    7  A    between atoms: C_9  and  O_11 
REMARK    8  A    between atoms: C_28  and  C_29 
REMARK    9  A    between atoms: C_29  and  C_30 
REMARK   10  A    between atoms: C_30  and  O_32 
REMARK   11  A    between atoms: C_33  and  C_34 
REMARK   12  A    between atoms: C_34  and  C_35 
REMARK   13  A    between atoms: C_35  and  C_36 
REMARK   14  A    between atoms: C_36  and  O_38 
REMARK   15  A    between atoms: C_39  and  C_40 
REMARK   16  A    between atoms: C_40  and  C_41 
REMARK   17  A    between atoms: C_41  and  C_42 
REMARK   18  A    between atoms: C_42  and  O_44 
REMARK   19  A    between atoms: C_45  and  C_46 
REMARK   20  A    between atoms: C_46  and  C_47 
REMARK   21  A    between atoms: C_47  and  O_49 
REMARK   22  A    between atoms: C_50  and  C_51 
REMARK   23  A    between atoms: C_51  and  C_52 
REMARK   24  A    between atoms: C_52  and  O_54 
REMARK   25  A    between atoms: C_55  and  C_56 
REMARK   26  A    between atoms: C_56  and  C_57 
REMARK   27  A    between atoms: C_57  and  C_58 
REMARK   28  A    between atoms: C_58  and  O_60 
ROOT
ATOM      1  O   UNK d   0     -13.699 -10.123  -0.105  0.00  0.00    -0.650 OA
ATOM      2  C   UNK d   0     -13.737  -9.067  -0.776  0.00  0.00     0.139 C 
ENDROOT
BRANCH   2   3
ATOM      3  O   UNK d   0     -14.944  -8.442  -0.979  0.00  0.00    -0.776 OA
ATOM      4  H   UNK d   0     -15.018  -7.623  -1.587  0.00  0.00     0.167 HD
ENDBRANCH   2   3
BRANCH   2   5
ATOM      5  C   UNK d   0     -12.484  -8.499  -1.349  0.00  0.00     0.115 C 
BRANCH   5   6
ATOM      6  C   UNK d   0     -11.309  -8.859  -0.482  0.00  0.00     0.052 C 
BRANCH   6   7
ATOM      7  C   UNK d   0     -10.322  -9.760  -1.186  0.00  0.00    -0.020 A 
ATOM      8  C   UNK d   0      -9.022  -9.788  -1.041  0.00  0.00    -0.011 A 
ATOM      9  C   UNK d   0      -8.497 -10.811  -1.930  0.00  0.00     0.067 A 
ATOM     10  C   UNK d   0      -7.231 -11.339  -2.230  0.00  0.00     0.062 C 
ATOM     11  N   UNK d   0      -9.547 -11.352  -2.583  0.00  0.00    -0.248 NA
ATOM     12  C   UNK d   0      -6.949 -12.523  -2.918  0.00  0.00     0.041 A 
ATOM     13  N   UNK d   0      -7.495 -13.055  -4.029  0.00  0.00    -0.355 N 
ATOM     14  C   UNK d   0      -5.976 -13.397  -2.400  0.00  0.00    -0.022 A 
ATOM     15  C   UNK d   0      -6.899 -14.246  -4.223  0.00  0.00     0.042 A 
ATOM     16  H   UNK d   0      -8.273 -12.588  -4.673  0.00  0.00     0.166 HD
ATOM     17  C   UNK d   0      -7.092 -15.210  -5.234  0.00  0.00     0.062 C 
ATOM     18  C   UNK d   0      -5.941 -14.496  -3.222  0.00  0.00    -0.013 A 
ATOM     19  C   UNK d   0      -8.266 -15.692  -5.753  0.00  0.00     0.067 A 
ATOM     20  N   UNK d   0      -9.386 -15.045  -5.419  0.00  0.00    -0.248 NA
ATOM     21  C   UNK d   0      -8.651 -16.798  -6.614  0.00  0.00    -0.011 A 
ATOM     22  C   UNK d   0     -10.475 -15.649  -5.998  0.00  0.00     0.066 A 
ATOM     23  C   UNK d   0     -11.706 -15.054  -5.763  0.00  0.00     0.062 C 
ATOM     24  C   UNK d   0      -9.946 -16.769  -6.750  0.00  0.00    -0.020 A 
ATOM     25  C   UNK d   0     -11.967 -13.856  -5.080  0.00  0.00     0.041 A 
ATOM     26  N   UNK d   0     -11.434 -13.335  -3.968  0.00  0.00    -0.355 N 
ATOM     27  C   UNK d   0     -12.941 -12.978  -5.603  0.00  0.00    -0.022 A 
ATOM     28  C   UNK d   0     -12.033 -12.150  -3.767  0.00  0.00     0.042 A 
ATOM     29  H   UNK d   0     -10.661 -13.810  -3.316  0.00  0.00     0.166 HD
ATOM     30  C   UNK d   0     -11.858 -11.187  -2.761  0.00  0.00     0.062 C 
ATOM     31  C   UNK d   0     -12.989 -11.896  -4.779  0.00  0.00    -0.013 A 
ATOM     32  C   UNK d   0     -10.674 -10.764  -2.179  0.00  0.00     0.066 A 
BRANCH   8  33
ATOM     33  C   UNK d   0      -8.213  -8.939  -0.146  0.00  0.00     0.151 C 
BRANCH  33  34
ATOM     34  C   UNK d   0      -6.793  -8.890  -0.537  0.00  0.00     0.143 C 
ATOM     35  O   UNK d   0      -5.929  -9.476   0.132  0.00  0.00    -0.650 OA
BRANCH  34  36
ATOM     36  O   UNK d   0      -6.424  -8.183  -1.657  0.00  0.00    -0.776 OA
ATOM     37  H   UNK d   0      -7.119  -7.676  -2.222  0.00  0.00     0.167 HD
ENDBRANCH  34  36
ENDBRANCH  33  34
ENDBRANCH   8  33
BRANCH  31  38
ATOM     38  C   UNK d   0     -13.878 -10.686  -4.947  0.00  0.00     0.151 C 
BRANCH  38  39
ATOM     39  C   UNK d   0     -15.138 -10.813  -4.246  0.00  0.00     0.143 C 
ATOM     40  O   UNK d   0     -15.211 -10.812  -3.004  0.00  0.00    -0.650 OA
BRANCH  39  41
ATOM     41  O   UNK d   0     -16.319 -10.940  -4.975  0.00  0.00    -0.776 OA
ATOM     42  H   UNK d   0     -16.357 -10.462  -5.881  0.00  0.00     0.167 HD
ENDBRANCH  39  41
ENDBRANCH  38  39
ENDBRANCH  31  38
BRANCH  27  43
ATOM     43  C   UNK d   0     -13.808 -13.129  -6.828  0.00  0.00     0.052 C 
BRANCH  43  44
ATOM     44  C   UNK d   0     -14.458 -14.471  -6.930  0.00  0.00     0.115 C 
BRANCH  44  45
ATOM     45  C   UNK d   0     -14.581 -14.773  -8.380  0.00  0.00     0.139 C 
ATOM     46  O   UNK d   0     -14.086 -13.960  -9.199  0.00  0.00    -0.650 OA
BRANCH  45  47
ATOM     47  O   UNK d   0     -15.207 -15.905  -8.857  0.00  0.00    -0.776 OA
ATOM     48  H   UNK d   0     -15.241 -16.146  -9.860  0.00  0.00     0.167 HD
ENDBRANCH  45  47
ENDBRANCH  44  45
ENDBRANCH  43  44
ENDBRANCH  27  43
BRANCH  24  49
ATOM     49  C   UNK d   0     -10.753 -17.687  -7.572  0.00  0.00     0.052 C 
BRANCH  49  50
ATOM     50  C   UNK d   0     -12.115 -17.882  -6.957  0.00  0.00     0.115 C 
BRANCH  50  51
ATOM     51  C   UNK d   0     -13.006 -18.837  -7.602  0.00  0.00     0.139 C 
ATOM     52  O   UNK d   0     -12.918 -20.074  -7.419  0.00  0.00    -0.650 OA
BRANCH  51  53
ATOM     53  O   UNK d   0     -13.996 -18.381  -8.459  0.00  0.00    -0.776 OA
ATOM     54  H   UNK d   0     -14.425 -19.042  -9.083  0.00  0.00     0.167 HD
ENDBRANCH  51  53
ENDBRANCH  50  51
ENDBRANCH  49  50
ENDBRANCH  24  49
BRANCH  21  55
ATOM     55  C   UNK d   0      -7.685 -17.764  -7.215  0.00  0.00     0.151 C 
BRANCH  55  56
ATOM     56  C   UNK d   0      -6.627 -17.085  -7.977  0.00  0.00     0.143 C 
ATOM     57  O   UNK d   0      -6.753 -16.775  -9.178  0.00  0.00    -0.650 OA
BRANCH  56  58
ATOM     58  O   UNK d   0      -5.440 -16.782  -7.311  0.00  0.00    -0.776 OA
ATOM     59  H   UNK d   0      -5.483 -16.872  -6.280  0.00  0.00     0.167 HD
ENDBRANCH  56  58
ENDBRANCH  55  56
ENDBRANCH  21  55
BRANCH  18  60
ATOM     60  C   UNK d   0      -5.039 -15.690  -3.031  0.00  0.00     0.151 C 
BRANCH  60  61
ATOM     61  C   UNK d   0      -5.915 -16.870  -3.084  0.00  0.00     0.143 C 
ATOM     62  O   UNK d   0      -5.668 -17.955  -3.611  0.00  0.00    -0.650 OA
BRANCH  61  63
ATOM     63  O   UNK d   0      -7.173 -16.715  -2.452  0.00  0.00    -0.776 OA
ATOM     64  H   UNK d   0      -7.828 -17.476  -2.409  0.00  0.00     0.167 HD
ENDBRANCH  61  63
ENDBRANCH  60  61
ENDBRANCH  18  60
BRANCH  14  65
ATOM     65  C   UNK d   0      -5.017 -13.229  -1.255  0.00  0.00     0.052 C 
BRANCH  65  66
ATOM     66  C   UNK d   0      -5.601 -13.625   0.055  0.00  0.00     0.115 C 
BRANCH  66  67
ATOM     67  C   UNK d   0      -5.848 -15.012   0.334  0.00  0.00     0.139 C 
ATOM     68  O   UNK d   0      -7.055 -15.448   0.253  0.00  0.00    -0.650 OA
BRANCH  67  69
ATOM     69  O   UNK d   0      -4.920 -15.988   0.695  0.00  0.00    -0.776 OA
ATOM     70  H   UNK d   0      -4.975 -16.874   0.172  0.00  0.00     0.167 HD
ENDBRANCH  67  69
ENDBRANCH  66  67
ENDBRANCH  65  66
ENDBRANCH  14  65
ENDBRANCH   6   7
ENDBRANCH   5   6
ENDBRANCH   2   5
TORSDOF 28
ENDMDL
MODEL 11
REMARK VINA RESULT:      -8.3      2.193      8.162
REMARK  28 active torsions:
REMARK  status: ('A' for Active; 'I' for Inactive)
REMARK    1  A    between atoms: C_2  and  O_3 
REMARK    2  A    between atoms: C_2  and  C_4 
REMARK    3  A    between atoms: C_4  and  C_5 
REMARK    4  A    between atoms: C_5  and  C_6 
REMARK    5  A    between atoms: C_7  and  C_8 
REMARK    6  A    between atoms: C_8  and  C_9 
REMARK    7  A    between atoms: C_9  and  O_11 
REMARK    8  A    between atoms: C_28  and  C_29 
REMARK    9  A    between atoms: C_29  and  C_30 
REMARK   10  A    between atoms: C_30  and  O_32 
REMARK   11  A    between atoms: C_33  and  C_34 
REMARK   12  A    between atoms: C_34  and  C_35 
REMARK   13  A    between atoms: C_35  and  C_36 
REMARK   14  A    between atoms: C_36  and  O_38 
REMARK   15  A    between atoms: C_39  and  C_40 
REMARK   16  A    between atoms: C_40  and  C_41 
REMARK   17  A    between atoms: C_41  and  C_42 
REMARK   18  A    between atoms: C_42  and  O_44 
REMARK   19  A    between atoms: C_45  and  C_46 
REMARK   20  A    between atoms: C_46  and  C_47 
REMARK   21  A    between atoms: C_47  and  O_49 
REMARK   22  A    between atoms: C_50  and  C_51 
REMARK   23  A    between atoms: C_51  and  C_52 
REMARK   24  A    between atoms: C_52  and  O_54 
REMARK   25  A    between atoms: C_55  and  C_56 
REMARK   26  A    between atoms: C_56  and  C_57 
REMARK   27  A    between atoms: C_57  and  C_58 
REMARK   28  A    between atoms: C_58  and  O_60 
ROOT
ATOM      1  O   UNK d   0     -42.539 -17.319   5.537  0.00  0.00    -0.650 OA
ATOM      2  C   UNK d   0     -41.815 -16.748   6.382  0.00  0.00     0.139 C 
ENDROOT
BRANCH   2   3
ATOM      3  O   UNK d   0     -41.675 -15.382   6.337  0.00  0.00    -0.776 OA
ATOM      4  H   UNK d   0     -41.627 -14.827   7.194  0.00  0.00     0.167 HD
ENDBRANCH   2   3
BRANCH   2   5
ATOM      5  C   UNK d   0     -41.113 -17.546   7.427  0.00  0.00     0.115 C 
BRANCH   5   6
ATOM      6  C   UNK d   0     -40.176 -18.531   6.783  0.00  0.00     0.052 C 
BRANCH   6   7
ATOM      7  C   UNK d   0     -39.391 -19.334   7.793  0.00  0.00    -0.020 A 
ATOM      8  C   UNK d   0     -39.604 -20.569   8.170  0.00  0.00    -0.011 A 
ATOM      9  C   UNK d   0     -38.602 -20.908   9.166  0.00  0.00     0.067 A 
ATOM     10  C   UNK d   0     -38.272 -22.042   9.925  0.00  0.00     0.062 C 
ATOM     11  N   UNK d   0     -37.824 -19.819   9.340  0.00  0.00    -0.248 NA
ATOM     12  C   UNK d   0     -37.090 -22.270  10.638  0.00  0.00     0.041 A 
ATOM     13  N   UNK d   0     -36.362 -21.460  11.430  0.00  0.00    -0.355 N 
ATOM     14  C   UNK d   0     -36.455 -23.520  10.520  0.00  0.00    -0.022 A 
ATOM     15  C   UNK d   0     -35.278 -22.161  11.812  0.00  0.00     0.042 A 
ATOM     16  H   UNK d   0     -36.620 -20.421  11.729  0.00  0.00     0.166 HD
ATOM     17  C   UNK d   0     -34.198 -21.795  12.640  0.00  0.00     0.062 C 
ATOM     18  C   UNK d   0     -35.301 -23.457  11.261  0.00  0.00    -0.013 A 
ATOM     19  C   UNK d   0     -33.470 -20.632  12.643  0.00  0.00     0.067 A 
ATOM     20  N   UNK d   0     -33.945 -19.619  11.914  0.00  0.00    -0.248 NA
ATOM     21  C   UNK d   0     -32.233 -20.176  13.255  0.00  0.00    -0.011 A 
ATOM     22  C   UNK d   0     -33.107 -18.535  12.003  0.00  0.00     0.066 A 
ATOM     23  C   UNK d   0     -33.501 -17.394  11.319  0.00  0.00     0.062 C 
ATOM     24  C   UNK d   0     -32.024 -18.949  12.873  0.00  0.00    -0.020 A 
ATOM     25  C   UNK d   0     -34.699 -17.181  10.620  0.00  0.00     0.041 A 
ATOM     26  N   UNK d   0     -35.415 -17.981   9.820  0.00  0.00    -0.355 N 
ATOM     27  C   UNK d   0     -35.338 -15.927  10.742  0.00  0.00    -0.022 A 
ATOM     28  C   UNK d   0     -36.492 -17.281   9.431  0.00  0.00     0.042 A 
ATOM     29  H   UNK d   0     -35.149 -19.022   9.512  0.00  0.00     0.166 HD
ATOM     30  C   UNK d   0     -37.569 -17.630   8.601  0.00  0.00     0.062 C 
ATOM     31  C   UNK d   0     -36.474 -15.982   9.994  0.00  0.00    -0.013 A 
ATOM     32  C   UNK d   0     -38.247 -18.837   8.542  0.00  0.00     0.066 A 
BRANCH   8  33
ATOM     33  C   UNK d   0     -40.666 -21.471   7.687  0.00  0.00     0.151 C 
BRANCH  33  34
ATOM     34  C   UNK d   0     -41.783 -21.597   8.640  0.00  0.00     0.143 C 
ATOM     35  O   UNK d   0     -41.679 -22.300   9.655  0.00  0.00    -0.650 OA
BRANCH  34  36
ATOM     36  O   UNK d   0     -42.958 -20.924   8.395  0.00  0.00    -0.776 OA
ATOM     37  H   UNK d   0     -43.251 -20.691   7.436  0.00  0.00     0.167 HD
ENDBRANCH  34  36
ENDBRANCH  33  34
ENDBRANCH   8  33
BRANCH  31  38
ATOM     38  C   UNK d   0     -37.489 -14.875   9.831  0.00  0.00     0.151 C 
BRANCH  38  39
ATOM     39  C   UNK d   0     -38.839 -15.302  10.134  0.00  0.00     0.143 C 
ATOM     40  O   UNK d   0     -39.814 -14.967   9.440  0.00  0.00    -0.650 OA
BRANCH  39  41
ATOM     41  O   UNK d   0     -39.068 -16.118  11.242  0.00  0.00    -0.776 OA
ATOM     42  H   UNK d   0     -39.824 -15.837  11.874  0.00  0.00     0.167 HD
ENDBRANCH  39  41
ENDBRANCH  38  39
ENDBRANCH  31  38
BRANCH  27  43
ATOM     43  C   UNK d   0     -34.916 -14.709  11.524  0.00  0.00     0.052 C 
BRANCH  43  44
ATOM     44  C   UNK d   0     -33.522 -14.799  12.052  0.00  0.00     0.115 C 
BRANCH  44  45
ATOM     45  C   UNK d   0     -32.634 -14.228  11.006  0.00  0.00     0.139 C 
ATOM     46  O   UNK d   0     -31.705 -13.465  11.371  0.00  0.00    -0.650 OA
BRANCH  45  47
ATOM     47  O   UNK d   0     -32.785 -14.504   9.665  0.00  0.00    -0.776 OA
ATOM     48  H   UNK d   0     -33.684 -14.394   9.168  0.00  0.00     0.167 HD
ENDBRANCH  45  47
ENDBRANCH  44  45
ENDBRANCH  43  44
ENDBRANCH  27  43
BRANCH  24  49
ATOM     49  C   UNK d   0     -30.902 -18.090  13.287  0.00  0.00     0.052 C 
BRANCH  49  50
ATOM     50  C   UNK d   0     -31.416 -16.865  14.001  0.00  0.00     0.115 C 
BRANCH  50  51
ATOM     51  C   UNK d   0     -30.434 -15.862  14.391  0.00  0.00     0.139 C 
ATOM     52  O   UNK d   0     -29.580 -16.064  15.286  0.00  0.00    -0.650 OA
BRANCH  51  53
ATOM     53  O   UNK d   0     -30.427 -14.627  13.761  0.00  0.00    -0.776 OA
ATOM     54  H   UNK d   0     -31.222 -14.026  13.885  0.00  0.00     0.167 HD
ENDBRANCH  51  53
ENDBRANCH  50  51
ENDBRANCH  49  50
ENDBRANCH  24  49
BRANCH  21  55
ATOM     55  C   UNK d   0     -31.392 -21.012  14.161  0.00  0.00     0.151 C 
BRANCH  55  56
ATOM     56  C   UNK d   0     -31.631 -22.450  13.964  0.00  0.00     0.143 C 
ATOM     57  O   UNK d   0     -32.341 -23.128  14.733  0.00  0.00    -0.650 OA
BRANCH  56  58
ATOM     58  O   UNK d   0     -31.030 -23.064  12.867  0.00  0.00    -0.776 OA
ATOM     59  H   UNK d   0     -30.070 -22.737  12.655  0.00  0.00     0.167 HD
ENDBRANCH  56  58
ENDBRANCH  55  56
ENDBRANCH  21  55
BRANCH  18  60
ATOM     60  C   UNK d   0     -34.306 -24.582  11.408  0.00  0.00     0.151 C 
BRANCH  60  61
ATOM     61  C   UNK d   0     -33.359 -24.431  10.293  0.00  0.00     0.143 C 
ATOM     62  O   UNK d   0     -32.543 -23.523  10.129  0.00  0.00    -0.650 OA
BRANCH  61  63
ATOM     63  O   UNK d   0     -33.411 -25.454   9.315  0.00  0.00    -0.776 OA
ATOM     64  H   UNK d   0     -34.267 -25.668   8.835  0.00  0.00     0.167 HD
ENDBRANCH  61  63
ENDBRANCH  60  61
ENDBRANCH  18  60
BRANCH  14  65
ATOM     65  C   UNK d   0     -36.901 -24.788   9.849  0.00  0.00     0.052 C 
BRANCH  65  66
ATOM     66  C   UNK d   0     -37.756 -25.638  10.720  0.00  0.00     0.115 C 
BRANCH  66  67
ATOM     67  C   UNK d   0     -37.195 -26.797  11.354  0.00  0.00     0.139 C 
ATOM     68  O   UNK d   0     -37.076 -27.877  10.666  0.00  0.00    -0.650 OA
BRANCH  67  69
ATOM     69  O   UNK d   0     -36.744 -26.917  12.668  0.00  0.00    -0.776 OA
ATOM     70  H   UNK d   0     -37.451 -26.761  13.401  0.00  0.00     0.167 HD
ENDBRANCH  67  69
ENDBRANCH  66  67
ENDBRANCH  65  66
ENDBRANCH  14  65
ENDBRANCH   6   7
ENDBRANCH   5   6
ENDBRANCH   2   5
TORSDOF 28
ENDMDL
MODEL 12
REMARK VINA RESULT:      -8.3      1.856      8.230
REMARK  28 active torsions:
REMARK  status: ('A' for Active; 'I' for Inactive)
REMARK    1  A    between atoms: C_2  and  O_3 
REMARK    2  A    between atoms: C_2  and  C_4 
REMARK    3  A    between atoms: C_4  and  C_5 
REMARK    4  A    between atoms: C_5  and  C_6 
REMARK    5  A    between atoms: C_7  and  C_8 
REMARK    6  A    between atoms: C_8  and  C_9 
REMARK    7  A    between atoms: C_9  and  O_11 
REMARK    8  A    between atoms: C_28  and  C_29 
REMARK    9  A    between atoms: C_29  and  C_30 
REMARK   10  A    between atoms: C_30  and  O_32 
REMARK   11  A    between atoms: C_33  and  C_34 
REMARK   12  A    between atoms: C_34  and  C_35 
REMARK   13  A    between atoms: C_35  and  C_36 
REMARK   14  A    between atoms: C_36  and  O_38 
REMARK   15  A    between atoms: C_39  and  C_40 
REMARK   16  A    between atoms: C_40  and  C_41 
REMARK   17  A    between atoms: C_41  and  C_42 
REMARK   18  A    between atoms: C_42  and  O_44 
REMARK   19  A    between atoms: C_45  and  C_46 
REMARK   20  A    between atoms: C_46  and  C_47 
REMARK   21  A    between atoms: C_47  and  O_49 
REMARK   22  A    between atoms: C_50  and  C_51 
REMARK   23  A    between atoms: C_51  and  C_52 
REMARK   24  A    between atoms: C_52  and  O_54 
REMARK   25  A    between atoms: C_55  and  C_56 
REMARK   26  A    between atoms: C_56  and  C_57 
REMARK   27  A    between atoms: C_57  and  C_58 
REMARK   28  A    between atoms: C_58  and  O_60 
ROOT
ATOM      1  O   UNK d   0     -30.614 -13.386  14.359  0.00  0.00    -0.650 OA
ATOM      2  C   UNK d   0     -31.150 -14.072  13.462  0.00  0.00     0.139 C 
ENDROOT
BRANCH   2   3
ATOM      3  O   UNK d   0     -31.035 -13.676  12.151  0.00  0.00    -0.776 OA
ATOM      4  H   UNK d   0     -31.739 -13.074  11.718  0.00  0.00     0.167 HD
ENDBRANCH   2   3
BRANCH   2   5
ATOM      5  C   UNK d   0     -31.906 -15.307  13.815  0.00  0.00     0.115 C 
BRANCH   5   6
ATOM      6  C   UNK d   0     -31.901 -16.267  12.657  0.00  0.00     0.052 C 
BRANCH   6   7
ATOM      7  C   UNK d   0     -33.249 -16.908  12.426  0.00  0.00    -0.020 A 
ATOM      8  C   UNK d   0     -34.417 -16.318  12.390  0.00  0.00    -0.011 A 
ATOM      9  C   UNK d   0     -35.423 -17.339  12.149  0.00  0.00     0.067 A 
ATOM     10  C   UNK d   0     -36.817 -17.369  11.985  0.00  0.00     0.062 C 
ATOM     11  N   UNK d   0     -34.780 -18.522  12.059  0.00  0.00    -0.248 NA
ATOM     12  C   UNK d   0     -37.588 -18.421  11.481  0.00  0.00     0.041 A 
ATOM     13  N   UNK d   0     -37.531 -19.748  11.704  0.00  0.00    -0.355 N 
ATOM     14  C   UNK d   0     -38.584 -18.140  10.528  0.00  0.00    -0.022 A 
ATOM     15  C   UNK d   0     -38.460 -20.316  10.912  0.00  0.00     0.042 A 
ATOM     16  H   UNK d   0     -36.861 -20.271  12.421  0.00  0.00     0.166 HD
ATOM     17  C   UNK d   0     -38.821 -21.669  10.752  0.00  0.00     0.062 C 
ATOM     18  C   UNK d   0     -39.141 -19.339  10.160  0.00  0.00    -0.013 A 
ATOM     19  C   UNK d   0     -38.010 -22.768  10.620  0.00  0.00     0.067 A 
ATOM     20  N   UNK d   0     -36.709 -22.593  10.867  0.00  0.00    -0.248 NA
ATOM     21  C   UNK d   0     -38.191 -24.161  10.247  0.00  0.00    -0.011 A 
ATOM     22  C   UNK d   0     -36.026 -23.770  10.680  0.00  0.00     0.066 A 
ATOM     23  C   UNK d   0     -34.664 -23.740  10.939  0.00  0.00     0.062 C 
ATOM     24  C   UNK d   0     -37.026 -24.740  10.279  0.00  0.00    -0.020 A 
ATOM     25  C   UNK d   0     -33.910 -22.675  11.457  0.00  0.00     0.041 A 
ATOM     26  N   UNK d   0     -33.957 -21.358  11.224  0.00  0.00    -0.355 N 
ATOM     27  C   UNK d   0     -32.913 -22.958  12.416  0.00  0.00    -0.022 A 
ATOM     28  C   UNK d   0     -33.025 -20.790  12.006  0.00  0.00     0.042 A 
ATOM     29  H   UNK d   0     -34.624 -20.836  10.495  0.00  0.00     0.166 HD
ATOM     30  C   UNK d   0     -32.650 -19.447  12.168  0.00  0.00     0.062 C 
ATOM     31  C   UNK d   0     -32.349 -21.771  12.770  0.00  0.00    -0.013 A 
ATOM     32  C   UNK d   0     -33.469 -18.331  12.216  0.00  0.00     0.066 A 
BRANCH   8  33
ATOM     33  C   UNK d   0     -34.688 -14.879  12.563  0.00  0.00     0.151 C 
BRANCH  33  34
ATOM     34  C   UNK d   0     -34.603 -14.126  11.299  0.00  0.00     0.143 C 
ATOM     35  O   UNK d   0     -35.358 -14.387  10.351  0.00  0.00    -0.650 OA
BRANCH  34  36
ATOM     36  O   UNK d   0     -33.672 -13.121  11.173  0.00  0.00    -0.776 OA
ATOM     37  H   UNK d   0     -33.188 -12.951  10.281  0.00  0.00     0.167 HD
ENDBRANCH  34  36
ENDBRANCH  33  34
ENDBRANCH   8  33
BRANCH  31  38
ATOM     38  C   UNK d   0     -31.243 -21.576  13.780  0.00  0.00     0.151 C 
BRANCH  38  39
ATOM     39  C   UNK d   0     -31.681 -20.860  14.960  0.00  0.00     0.143 C 
ATOM     40  O   UNK d   0     -32.702 -21.181  15.592  0.00  0.00    -0.650 OA
BRANCH  39  41
ATOM     41  O   UNK d   0     -30.939 -19.770  15.416  0.00  0.00    -0.776 OA
ATOM     42  H   UNK d   0     -30.842 -19.671  16.431  0.00  0.00     0.167 HD
ENDBRANCH  39  41
ENDBRANCH  38  39
ENDBRANCH  31  38
BRANCH  27  43
ATOM     43  C   UNK d   0     -32.487 -24.285  12.993  0.00  0.00     0.052 C 
BRANCH  43  44
ATOM     44  C   UNK d   0     -31.037 -24.580  12.790  0.00  0.00     0.115 C 
BRANCH  44  45
ATOM     45  C   UNK d   0     -30.961 -25.667  11.780  0.00  0.00     0.139 C 
ATOM     46  O   UNK d   0     -31.759 -25.631  10.811  0.00  0.00    -0.650 OA
BRANCH  45  47
ATOM     47  O   UNK d   0     -30.054 -26.702  11.863  0.00  0.00    -0.776 OA
ATOM     48  H   UNK d   0     -29.554 -27.075  11.040  0.00  0.00     0.167 HD
ENDBRANCH  45  47
ENDBRANCH  44  45
ENDBRANCH  43  44
ENDBRANCH  27  43
BRANCH  24  49
ATOM     49  C   UNK d   0     -36.756 -26.162  10.007  0.00  0.00     0.052 C 
BRANCH  49  50
ATOM     50  C   UNK d   0     -36.689 -26.940  11.296  0.00  0.00     0.115 C 
BRANCH  50  51
ATOM     51  C   UNK d   0     -35.471 -27.696  11.554  0.00  0.00     0.139 C 
ATOM     52  O   UNK d   0     -35.484 -28.870  11.993  0.00  0.00    -0.650 OA
BRANCH  51  53
ATOM     53  O   UNK d   0     -34.236 -27.111  11.315  0.00  0.00    -0.776 OA
ATOM     54  H   UNK d   0     -34.173 -26.410  10.597  0.00  0.00     0.167 HD
ENDBRANCH  51  53
ENDBRANCH  50  51
ENDBRANCH  49  50
ENDBRANCH  24  49
BRANCH  21  55
ATOM     55  C   UNK d   0     -39.510 -24.768   9.900  0.00  0.00     0.151 C 
BRANCH  55  56
ATOM     56  C   UNK d   0     -40.446 -24.737  11.035  0.00  0.00     0.143 C 
ATOM     57  O   UNK d   0     -41.346 -23.882  11.145  0.00  0.00    -0.650 OA
BRANCH  56  58
ATOM     58  O   UNK d   0     -40.306 -25.715  12.018  0.00  0.00    -0.776 OA
ATOM     59  H   UNK d   0     -41.195 -26.126  12.356  0.00  0.00     0.167 HD
ENDBRANCH  56  58
ENDBRANCH  55  56
ENDBRANCH  21  55
BRANCH  18  60
ATOM     60  C   UNK d   0     -40.248 -19.504   9.148  0.00  0.00     0.151 C 
BRANCH  60  61
ATOM     61  C   UNK d   0     -41.505 -19.411   9.907  0.00  0.00     0.143 C 
ATOM     62  O   UNK d   0     -41.887 -20.163  10.804  0.00  0.00    -0.650 OA
BRANCH  61  63
ATOM     63  O   UNK d   0     -42.347 -18.332   9.546  0.00  0.00    -0.776 OA
ATOM     64  H   UNK d   0     -42.469 -18.069   8.585  0.00  0.00     0.167 HD
ENDBRANCH  61  63
ENDBRANCH  60  61
ENDBRANCH  18  60
BRANCH  14  65
ATOM     65  C   UNK d   0     -39.112 -16.829  10.019  0.00  0.00     0.052 C 
BRANCH  65  66
ATOM     66  C   UNK d   0     -39.711 -15.987  11.090  0.00  0.00     0.115 C 
BRANCH  66  67
ATOM     67  C   UNK d   0     -41.079 -15.564  10.982  0.00  0.00     0.139 C 
ATOM     68  O   UNK d   0     -41.991 -16.293  11.520  0.00  0.00    -0.650 OA
BRANCH  67  69
ATOM     69  O   UNK d   0     -41.572 -14.426  10.346  0.00  0.00    -0.776 OA
ATOM     70  H   UNK d   0     -41.329 -13.526  10.785  0.00  0.00     0.167 HD
ENDBRANCH  67  69
ENDBRANCH  66  67
ENDBRANCH  65  66
ENDBRANCH  14  65
ENDBRANCH   6   7
ENDBRANCH   5   6
ENDBRANCH   2   5
TORSDOF 28
ENDMDL
MODEL 13
REMARK VINA RESULT:      -8.2     28.786     32.457
REMARK  28 active torsions:
REMARK  status: ('A' for Active; 'I' for Inactive)
REMARK    1  A    between atoms: C_2  and  O_3 
REMARK    2  A    between atoms: C_2  and  C_4 
REMARK    3  A    between atoms: C_4  and  C_5 
REMARK    4  A    between atoms: C_5  and  C_6 
REMARK    5  A    between atoms: C_7  and  C_8 
REMARK    6  A    between atoms: C_8  and  C_9 
REMARK    7  A    between atoms: C_9  and  O_11 
REMARK    8  A    between atoms: C_28  and  C_29 
REMARK    9  A    between atoms: C_29  and  C_30 
REMARK   10  A    between atoms: C_30  and  O_32 
REMARK   11  A    between atoms: C_33  and  C_34 
REMARK   12  A    between atoms: C_34  and  C_35 
REMARK   13  A    between atoms: C_35  and  C_36 
REMARK   14  A    between atoms: C_36  and  O_38 
REMARK   15  A    between atoms: C_39  and  C_40 
REMARK   16  A    between atoms: C_40  and  C_41 
REMARK   17  A    between atoms: C_41  and  C_42 
REMARK   18  A    between atoms: C_42  and  O_44 
REMARK   19  A    between atoms: C_45  and  C_46 
REMARK   20  A    between atoms: C_46  and  C_47 
REMARK   21  A    between atoms: C_47  and  O_49 
REMARK   22  A    between atoms: C_50  and  C_51 
REMARK   23  A    between atoms: C_51  and  C_52 
REMARK   24  A    between atoms: C_52  and  O_54 
REMARK   25  A    between atoms: C_55  and  C_56 
REMARK   26  A    between atoms: C_56  and  C_57 
REMARK   27  A    between atoms: C_57  and  C_58 
REMARK   28  A    between atoms: C_58  and  O_60 
ROOT
ATOM      1  O   UNK d   0     -15.278  -8.566  -3.818  0.00  0.00    -0.650 OA
ATOM      2  C   UNK d   0     -14.235  -8.569  -4.508  0.00  0.00     0.139 C 
ENDROOT
BRANCH   2   3
ATOM      3  O   UNK d   0     -13.118  -7.917  -4.044  0.00  0.00    -0.776 OA
ATOM      4  H   UNK d   0     -12.271  -8.432  -3.797  0.00  0.00     0.167 HD
ENDBRANCH   2   3
BRANCH   2   5
ATOM      5  C   UNK d   0     -14.208  -9.275  -5.821  0.00  0.00     0.115 C 
BRANCH   5   6
ATOM      6  C   UNK d   0     -14.945 -10.583  -5.721  0.00  0.00     0.052 C 
BRANCH   6   7
ATOM      7  C   UNK d   0     -14.016 -11.764  -5.576  0.00  0.00    -0.020 A 
ATOM      8  C   UNK d   0     -14.181 -12.972  -6.051  0.00  0.00    -0.011 A 
ATOM      9  C   UNK d   0     -13.033 -13.768  -5.650  0.00  0.00     0.067 A 
ATOM     10  C   UNK d   0     -12.599 -15.089  -5.845  0.00  0.00     0.062 C 
ATOM     11  N   UNK d   0     -12.222 -12.967  -4.929  0.00  0.00    -0.248 NA
ATOM     12  C   UNK d   0     -11.319 -15.603  -5.613  0.00  0.00     0.041 A 
ATOM     13  N   UNK d   0     -10.457 -15.411  -4.596  0.00  0.00    -0.355 N 
ATOM     14  C   UNK d   0     -10.730 -16.430  -6.588  0.00  0.00    -0.022 A 
ATOM     15  C   UNK d   0      -9.335 -16.089  -4.903  0.00  0.00     0.042 A 
ATOM     16  H   UNK d   0     -10.646 -14.825  -3.670  0.00  0.00     0.166 HD
ATOM     17  C   UNK d   0      -8.128 -16.228  -4.190  0.00  0.00     0.062 C 
ATOM     18  C   UNK d   0      -9.469 -16.740  -6.145  0.00  0.00    -0.013 A 
ATOM     19  C   UNK d   0      -7.392 -15.267  -3.545  0.00  0.00     0.067 A 
ATOM     20  N   UNK d   0      -7.966 -14.072  -3.385  0.00  0.00    -0.248 NA
ATOM     21  C   UNK d   0      -6.064 -15.185  -2.960  0.00  0.00    -0.011 A 
ATOM     22  C   UNK d   0      -7.109 -13.214  -2.740  0.00  0.00     0.066 A 
ATOM     23  C   UNK d   0      -7.595 -11.942  -2.474  0.00  0.00     0.062 C 
ATOM     24  C   UNK d   0      -5.903 -13.980  -2.494  0.00  0.00    -0.020 A 
ATOM     25  C   UNK d   0      -8.889 -11.450  -2.703  0.00  0.00     0.041 A 
ATOM     26  N   UNK d   0      -9.739 -11.628  -3.721  0.00  0.00    -0.355 N 
ATOM     27  C   UNK d   0      -9.480 -10.623  -1.723  0.00  0.00    -0.022 A 
ATOM     28  C   UNK d   0     -10.856 -10.946  -3.421  0.00  0.00     0.042 A 
ATOM     29  H   UNK d   0      -9.544 -12.208  -4.656  0.00  0.00     0.166 HD
ATOM     30  C   UNK d   0     -12.060 -10.791  -4.125  0.00  0.00     0.062 C 
ATOM     31  C   UNK d   0     -10.725 -10.300  -2.169  0.00  0.00    -0.013 A 
ATOM     32  C   UNK d   0     -12.756 -11.747  -4.848  0.00  0.00     0.066 A 
BRANCH   8  33
ATOM     33  C   UNK d   0     -15.322 -13.462  -6.847  0.00  0.00     0.151 C 
BRANCH  33  34
ATOM     34  C   UNK d   0     -14.902 -14.179  -8.064  0.00  0.00     0.143 C 
ATOM     35  O   UNK d   0     -15.346 -15.307  -8.324  0.00  0.00    -0.650 OA
BRANCH  34  36
ATOM     36  O   UNK d   0     -14.003 -13.587  -8.921  0.00  0.00    -0.776 OA
ATOM     37  H   UNK d   0     -14.278 -12.798  -9.522  0.00  0.00     0.167 HD
ENDBRANCH  34  36
ENDBRANCH  33  34
ENDBRANCH   8  33
BRANCH  31  38
ATOM     38  C   UNK d   0     -11.736  -9.442  -1.445  0.00  0.00     0.151 C 
BRANCH  38  39
ATOM     39  C   UNK d   0     -12.827 -10.211  -0.885  0.00  0.00     0.143 C 
ATOM     40  O   UNK d   0     -12.681 -11.380  -0.486  0.00  0.00    -0.650 OA
BRANCH  39  41
ATOM     41  O   UNK d   0     -14.092  -9.634  -0.781  0.00  0.00    -0.776 OA
ATOM     42  H   UNK d   0     -14.757  -9.842  -1.532  0.00  0.00     0.167 HD
ENDBRANCH  39  41
ENDBRANCH  38  39
ENDBRANCH  31  38
BRANCH  27  43
ATOM     43  C   UNK d   0      -8.916 -10.140  -0.410  0.00  0.00     0.052 C 
BRANCH  43  44
ATOM     44  C   UNK d   0      -7.988  -8.978  -0.557  0.00  0.00     0.115 C 
BRANCH  44  45
ATOM     45  C   UNK d   0      -6.761  -9.316   0.209  0.00  0.00     0.139 C 
ATOM     46  O   UNK d   0      -6.816 -10.268   1.026  0.00  0.00    -0.650 OA
BRANCH  45  47
ATOM     47  O   UNK d   0      -5.573  -8.634   0.055  0.00  0.00    -0.776 OA
ATOM     48  H   UNK d   0      -5.301  -8.175  -0.829  0.00  0.00     0.167 HD
ENDBRANCH  45  47
ENDBRANCH  44  45
ENDBRANCH  43  44
ENDBRANCH  27  43
BRANCH  24  49
ATOM     49  C   UNK d   0      -4.716 -13.475  -1.785  0.00  0.00     0.052 C 
BRANCH  49  50
ATOM     50  C   UNK d   0      -5.100 -12.956  -0.422  0.00  0.00     0.115 C 
BRANCH  50  51
ATOM     51  C   UNK d   0      -4.856 -13.833   0.715  0.00  0.00     0.139 C 
ATOM     52  O   UNK d   0      -4.878 -15.083   0.623  0.00  0.00    -0.650 OA
BRANCH  51  53
ATOM     53  O   UNK d   0      -4.590 -13.284   1.960  0.00  0.00    -0.776 OA
ATOM     54  H   UNK d   0      -3.658 -13.364   2.326  0.00  0.00     0.167 HD
ENDBRANCH  51  53
ENDBRANCH  50  51
ENDBRANCH  49  50
ENDBRANCH  24  49
BRANCH  21  55
ATOM     55  C   UNK d   0      -5.097 -16.321  -2.923  0.00  0.00     0.151 C 
BRANCH  55  56
ATOM     56  C   UNK d   0      -5.356 -17.301  -3.989  0.00  0.00     0.143 C 
ATOM     57  O   UNK d   0      -5.222 -17.034  -5.199  0.00  0.00    -0.650 OA
BRANCH  56  58
ATOM     58  O   UNK d   0      -5.769 -18.578  -3.610  0.00  0.00    -0.776 OA
ATOM     59  H   UNK d   0      -6.728 -18.833  -3.910  0.00  0.00     0.167 HD
ENDBRANCH  56  58
ENDBRANCH  55  56
ENDBRANCH  21  55
BRANCH  18  60
ATOM     60  C   UNK d   0      -8.480 -17.603  -6.888  0.00  0.00     0.151 C 
BRANCH  60  61
ATOM     61  C   UNK d   0      -7.818 -16.716  -7.858  0.00  0.00     0.143 C 
ATOM     62  O   UNK d   0      -8.117 -16.556  -9.041  0.00  0.00    -0.650 OA
BRANCH  61  63
ATOM     63  O   UNK d   0      -6.722 -15.978  -7.349  0.00  0.00    -0.776 OA
ATOM     64  H   UNK d   0      -6.459 -16.042  -6.381  0.00  0.00     0.167 HD
ENDBRANCH  61  63
ENDBRANCH  60  61
ENDBRANCH  18  60
BRANCH  14  65
ATOM     65  C   UNK d   0     -11.300 -17.022  -7.845  0.00  0.00     0.052 C 
BRANCH  65  66
ATOM     66  C   UNK d   0     -11.676 -18.454  -7.694  0.00  0.00     0.115 C 
BRANCH  66  67
ATOM     67  C   UNK d   0     -12.974 -18.799  -7.187  0.00  0.00     0.139 C 
ATOM     68  O   UNK d   0     -14.007 -18.236  -7.707  0.00  0.00    -0.650 OA
BRANCH  67  69
ATOM     69  O   UNK d   0     -13.280 -19.698  -6.165  0.00  0.00    -0.776 OA
ATOM     70  H   UNK d   0     -13.658 -20.607  -6.467  0.00  0.00     0.167 HD
ENDBRANCH  67  69
ENDBRANCH  66  67
ENDBRANCH  65  66
ENDBRANCH  14  65
ENDBRANCH   6   7
ENDBRANCH   5   6
ENDBRANCH   2   5
TORSDOF 28
ENDMDL
