MODEL 1
REMARK VINA RESULT:      -9.3      0.000      0.000
REMARK  28 active torsions:
REMARK  status: ('A' for Active; 'I' for Inactive)
REMARK    1  A    between atoms: C_2  and  O_3 
REMARK    2  A    between atoms: C_2  and  C_4 
REMARK    3  A    between atoms: C_4  and  C_5 
REMARK    4  A    between atoms: C_5  and  C_6 
REMARK    5  A    between atoms: C_7  and  C_8 
REMARK    6  A    between atoms: C_8  and  C_9 
REMARK    7  A    between atoms: C_9  and  O_11 
REMARK    8  A    between atoms: C_28  and  C_29 
REMARK    9  A    between atoms: C_29  and  C_30 
REMARK   10  A    between atoms: C_30  and  O_32 
REMARK   11  A    between atoms: C_33  and  C_34 
REMARK   12  A    between atoms: C_34  and  C_35 
REMARK   13  A    between atoms: C_35  and  C_36 
REMARK   14  A    between atoms: C_36  and  O_38 
REMARK   15  A    between atoms: C_39  and  C_40 
REMARK   16  A    between atoms: C_40  and  C_41 
REMARK   17  A    between atoms: C_41  and  C_42 
REMARK   18  A    between atoms: C_42  and  O_44 
REMARK   19  A    between atoms: C_45  and  C_46 
REMARK   20  A    between atoms: C_46  and  C_47 
REMARK   21  A    between atoms: C_47  and  O_49 
REMARK   22  A    between atoms: C_50  and  C_51 
REMARK   23  A    between atoms: C_51  and  C_52 
REMARK   24  A    between atoms: C_52  and  O_54 
REMARK   25  A    between atoms: C_55  and  C_56 
REMARK   26  A    between atoms: C_56  and  C_57 
REMARK   27  A    between atoms: C_57  and  C_58 
REMARK   28  A    between atoms: C_58  and  O_60 
ROOT
ATOM      1  O   UNK d   0       9.619  -5.295  17.132  0.00  0.00    -0.650 OA
ATOM      2  C   UNK d   0      10.542  -4.951  16.360  0.00  0.00     0.139 C 
ENDROOT
BRANCH   2   3
ATOM      3  O   UNK d   0      11.378  -5.910  15.841  0.00  0.00    -0.776 OA
ATOM      4  H   UNK d   0      12.391  -5.775  15.827  0.00  0.00     0.167 HD
ENDBRANCH   2   3
BRANCH   2   5
ATOM      5  C   UNK d   0      10.729  -3.514  16.011  0.00  0.00     0.115 C 
BRANCH   5   6
ATOM      6  C   UNK d   0      12.132  -3.279  15.521  0.00  0.00     0.052 C 
BRANCH   6   7
ATOM      7  C   UNK d   0      12.170  -2.619  14.164  0.00  0.00    -0.020 A 
ATOM      8  C   UNK d   0      12.468  -1.374  13.890  0.00  0.00    -0.011 A 
ATOM      9  C   UNK d   0      12.362  -1.198  12.451  0.00  0.00     0.067 A 
ATOM     10  C   UNK d   0      12.564  -0.147  11.543  0.00  0.00     0.062 C 
ATOM     11  N   UNK d   0      11.990  -2.384  11.928  0.00  0.00    -0.248 NA
ATOM     12  C   UNK d   0      12.682  -0.240  10.152  0.00  0.00     0.041 A 
ATOM     13  N   UNK d   0      11.990  -0.962   9.250  0.00  0.00    -0.355 N 
ATOM     14  C   UNK d   0      13.713   0.468   9.507  0.00  0.00    -0.022 A 
ATOM     15  C   UNK d   0      12.559  -0.735   8.051  0.00  0.00     0.042 A 
ATOM     16  H   UNK d   0      11.104  -1.603   9.453  0.00  0.00     0.166 HD
ATOM     17  C   UNK d   0      12.231  -1.235   6.775  0.00  0.00     0.062 C 
ATOM     18  C   UNK d   0      13.643   0.156   8.172  0.00  0.00    -0.013 A 
ATOM     19  C   UNK d   0      11.921  -2.519   6.405  0.00  0.00     0.067 A 
ATOM     20  N   UNK d   0      11.701  -3.395   7.389  0.00  0.00    -0.248 NA
ATOM     21  C   UNK d   0      11.770  -3.237   5.151  0.00  0.00    -0.011 A 
ATOM     22  C   UNK d   0      11.418  -4.634   6.868  0.00  0.00     0.066 A 
ATOM     23  C   UNK d   0      11.130  -5.636   7.784  0.00  0.00     0.062 C 
ATOM     24  C   UNK d   0      11.480  -4.475   5.429  0.00  0.00    -0.020 A 
ATOM     25  C   UNK d   0      11.003  -5.518   9.176  0.00  0.00     0.041 A 
ATOM     26  N   UNK d   0      11.701  -4.813  10.075  0.00  0.00    -0.355 N 
ATOM     27  C   UNK d   0       9.966  -6.226   9.822  0.00  0.00    -0.022 A 
ATOM     28  C   UNK d   0      11.141  -5.044  11.273  0.00  0.00     0.042 A 
ATOM     29  H   UNK d   0      12.598  -4.178   9.870  0.00  0.00     0.166 HD
ATOM     30  C   UNK d   0      11.462  -4.561  12.551  0.00  0.00     0.062 C 
ATOM     31  C   UNK d   0      10.045  -5.931  11.148  0.00  0.00    -0.013 A 
ATOM     32  C   UNK d   0      11.858  -3.282  12.906  0.00  0.00     0.066 A 
BRANCH   8  33
ATOM     33  C   UNK d   0      12.840  -0.321  14.853  0.00  0.00     0.151 C 
BRANCH  33  34
ATOM     34  C   UNK d   0      11.771   0.673  15.053  0.00  0.00     0.143 C 
ATOM     35  O   UNK d   0      10.790   0.418  15.766  0.00  0.00    -0.650 OA
BRANCH  34  36
ATOM     36  O   UNK d   0      11.865   1.900  14.437  0.00  0.00    -0.776 OA
ATOM     37  H   UNK d   0      12.110   2.747  14.968  0.00  0.00     0.167 HD
ENDBRANCH  34  36
ENDBRANCH  33  34
ENDBRANCH   8  33
BRANCH  31  38
ATOM     38  C   UNK d   0       9.129  -6.449  12.232  0.00  0.00     0.151 C 
BRANCH  38  39
ATOM     39  C   UNK d   0       9.744  -7.478  13.043  0.00  0.00     0.143 C 
ATOM     40  O   UNK d   0       9.515  -7.593  14.260  0.00  0.00    -0.650 OA
BRANCH  39  41
ATOM     41  O   UNK d   0      10.627  -8.382  12.452  0.00  0.00    -0.776 OA
ATOM     42  H   UNK d   0      10.239  -9.286  12.166  0.00  0.00     0.167 HD
ENDBRANCH  39  41
ENDBRANCH  38  39
ENDBRANCH  31  38
BRANCH  27  43
ATOM     43  C   UNK d   0       8.929  -7.152   9.236  0.00  0.00     0.052 C 
BRANCH  43  44
ATOM     44  C   UNK d   0       9.443  -8.533   8.987  0.00  0.00     0.115 C 
BRANCH  44  45
ATOM     45  C   UNK d   0       8.325  -9.299   8.380  0.00  0.00     0.139 C 
ATOM     46  O   UNK d   0       7.603  -8.720   7.530  0.00  0.00    -0.650 OA
BRANCH  45  47
ATOM     47  O   UNK d   0       8.054 -10.610   8.704  0.00  0.00    -0.776 OA
ATOM     48  H   UNK d   0       8.784 -11.275   9.006  0.00  0.00     0.167 HD
ENDBRANCH  45  47
ENDBRANCH  44  45
ENDBRANCH  43  44
ENDBRANCH  27  43
BRANCH  24  49
ATOM     49  C   UNK d   0      11.205  -5.543   4.452  0.00  0.00     0.052 C 
BRANCH  49  50
ATOM     50  C   UNK d   0      12.495  -6.082   3.887  0.00  0.00     0.115 C 
BRANCH  50  51
ATOM     51  C   UNK d   0      12.449  -7.398   3.264  0.00  0.00     0.139 C 
ATOM     52  O   UNK d   0      13.393  -8.218   3.346  0.00  0.00    -0.650 OA
BRANCH  51  53
ATOM     53  O   UNK d   0      11.326  -7.777   2.544  0.00  0.00    -0.776 OA
ATOM     54  H   UNK d   0      10.902  -7.101   1.934  0.00  0.00     0.167 HD
ENDBRANCH  51  53
ENDBRANCH  50  51
ENDBRANCH  49  50
ENDBRANCH  24  49
BRANCH  21  55
ATOM     55  C   UNK d   0      11.927  -2.610   3.805  0.00  0.00     0.151 C 
BRANCH  55  56
ATOM     56  C   UNK d   0      13.326  -2.252   3.523  0.00  0.00     0.143 C 
ATOM     57  O   UNK d   0      14.280  -3.019   3.761  0.00  0.00    -0.650 OA
BRANCH  56  58
ATOM     58  O   UNK d   0      13.576  -0.999   2.966  0.00  0.00    -0.776 OA
ATOM     59  H   UNK d   0      12.752  -0.374   2.911  0.00  0.00     0.167 HD
ENDBRANCH  56  58
ENDBRANCH  55  56
ENDBRANCH  21  55
BRANCH  18  60
ATOM     60  C   UNK d   0      14.571   0.691   7.110  0.00  0.00     0.151 C 
BRANCH  60  61
ATOM     61  C   UNK d   0      15.878   0.067   7.364  0.00  0.00     0.143 C 
ATOM     62  O   UNK d   0      16.088  -1.075   7.774  0.00  0.00    -0.650 OA
BRANCH  61  63
ATOM     63  O   UNK d   0      17.000   0.889   7.099  0.00  0.00    -0.776 OA
ATOM     64  H   UNK d   0      17.841   0.809   7.643  0.00  0.00     0.167 HD
ENDBRANCH  61  63
ENDBRANCH  60  61
ENDBRANCH  18  60
BRANCH  14  65
ATOM     65  C   UNK d   0      14.685   1.483  10.037  0.00  0.00     0.052 C 
BRANCH  65  66
ATOM     66  C   UNK d   0      14.094   2.842  10.169  0.00  0.00     0.115 C 
BRANCH  66  67
ATOM     67  C   UNK d   0      13.770   3.354  11.470  0.00  0.00     0.139 C 
ATOM     68  O   UNK d   0      14.727   3.778  12.218  0.00  0.00    -0.650 OA
BRANCH  67  69
ATOM     69  O   UNK d   0      12.509   3.459  12.056  0.00  0.00    -0.776 OA
ATOM     70  H   UNK d   0      12.499   3.558  13.082  0.00  0.00     0.167 HD
ENDBRANCH  67  69
ENDBRANCH  66  67
ENDBRANCH  65  66
ENDBRANCH  14  65
ENDBRANCH   6   7
ENDBRANCH   5   6
ENDBRANCH   2   5
TORSDOF 28
ENDMDL
MODEL 2
REMARK VINA RESULT:      -9.3     29.944     33.592
REMARK  28 active torsions:
REMARK  status: ('A' for Active; 'I' for Inactive)
REMARK    1  A    between atoms: C_2  and  O_3 
REMARK    2  A    between atoms: C_2  and  C_4 
REMARK    3  A    between atoms: C_4  and  C_5 
REMARK    4  A    between atoms: C_5  and  C_6 
REMARK    5  A    between atoms: C_7  and  C_8 
REMARK    6  A    between atoms: C_8  and  C_9 
REMARK    7  A    between atoms: C_9  and  O_11 
REMARK    8  A    between atoms: C_28  and  C_29 
REMARK    9  A    between atoms: C_29  and  C_30 
REMARK   10  A    between atoms: C_30  and  O_32 
REMARK   11  A    between atoms: C_33  and  C_34 
REMARK   12  A    between atoms: C_34  and  C_35 
REMARK   13  A    between atoms: C_35  and  C_36 
REMARK   14  A    between atoms: C_36  and  O_38 
REMARK   15  A    between atoms: C_39  and  C_40 
REMARK   16  A    between atoms: C_40  and  C_41 
REMARK   17  A    between atoms: C_41  and  C_42 
REMARK   18  A    between atoms: C_42  and  O_44 
REMARK   19  A    between atoms: C_45  and  C_46 
REMARK   20  A    between atoms: C_46  and  C_47 
REMARK   21  A    between atoms: C_47  and  O_49 
REMARK   22  A    between atoms: C_50  and  C_51 
REMARK   23  A    between atoms: C_51  and  C_52 
REMARK   24  A    between atoms: C_52  and  O_54 
REMARK   25  A    between atoms: C_55  and  C_56 
REMARK   26  A    between atoms: C_56  and  C_57 
REMARK   27  A    between atoms: C_57  and  C_58 
REMARK   28  A    between atoms: C_58  and  O_60 
ROOT
ATOM      1  O   UNK d   0     -12.811   5.957  -6.507  0.00  0.00    -0.650 OA
ATOM      2  C   UNK d   0     -13.060   5.141  -5.592  0.00  0.00     0.139 C 
ENDROOT
BRANCH   2   3
ATOM      3  O   UNK d   0     -12.204   5.049  -4.521  0.00  0.00    -0.776 OA
ATOM      4  H   UNK d   0     -11.465   4.343  -4.496  0.00  0.00     0.167 HD
ENDBRANCH   2   3
BRANCH   2   5
ATOM      5  C   UNK d   0     -14.274   4.280  -5.666  0.00  0.00     0.115 C 
BRANCH   5   6
ATOM      6  C   UNK d   0     -14.069   3.026  -4.860  0.00  0.00     0.052 C 
BRANCH   6   7
ATOM      7  C   UNK d   0     -14.471   1.780  -5.611  0.00  0.00    -0.020 A 
ATOM      8  C   UNK d   0     -15.293   0.841  -5.217  0.00  0.00    -0.011 A 
ATOM      9  C   UNK d   0     -15.362  -0.160  -6.269  0.00  0.00     0.067 A 
ATOM     10  C   UNK d   0     -16.052  -1.365  -6.477  0.00  0.00     0.062 C 
ATOM     11  N   UNK d   0     -14.546   0.247  -7.264  0.00  0.00    -0.248 NA
ATOM     12  C   UNK d   0     -16.203  -2.057  -7.683  0.00  0.00     0.041 A 
ATOM     13  N   UNK d   0     -15.323  -2.327  -8.666  0.00  0.00    -0.355 N 
ATOM     14  C   UNK d   0     -17.475  -2.544  -8.034  0.00  0.00    -0.022 A 
ATOM     15  C   UNK d   0     -16.006  -2.966  -9.635  0.00  0.00     0.042 A 
ATOM     16  H   UNK d   0     -14.237  -2.089  -8.667  0.00  0.00     0.166 HD
ATOM     17  C   UNK d   0     -15.573  -3.472 -10.877  0.00  0.00     0.062 C 
ATOM     18  C   UNK d   0     -17.359  -3.120  -9.275  0.00  0.00    -0.013 A 
ATOM     19  C   UNK d   0     -14.761  -2.882 -11.812  0.00  0.00     0.067 A 
ATOM     20  N   UNK d   0     -14.125  -1.768 -11.444  0.00  0.00    -0.248 NA
ATOM     21  C   UNK d   0     -14.391  -3.151 -13.192  0.00  0.00    -0.011 A 
ATOM     22  C   UNK d   0     -13.367  -1.287 -12.484  0.00  0.00     0.066 A 
ATOM     23  C   UNK d   0     -12.619  -0.147 -12.226  0.00  0.00     0.062 C 
ATOM     24  C   UNK d   0     -13.578  -2.211 -13.580  0.00  0.00    -0.020 A 
ATOM     25  C   UNK d   0     -12.471   0.526 -11.003  0.00  0.00     0.041 A 
ATOM     26  N   UNK d   0     -13.349   0.808 -10.033  0.00  0.00    -0.355 N 
ATOM     27  C   UNK d   0     -11.193   1.011 -10.650  0.00  0.00    -0.022 A 
ATOM     28  C   UNK d   0     -12.672   1.453  -9.069  0.00  0.00     0.042 A 
ATOM     29  H   UNK d   0     -14.443   0.577 -10.039  0.00  0.00     0.166 HD
ATOM     30  C   UNK d   0     -13.093   1.970  -7.834  0.00  0.00     0.062 C 
ATOM     31  C   UNK d   0     -11.311   1.598  -9.427  0.00  0.00    -0.013 A 
ATOM     32  C   UNK d   0     -13.980   1.408  -6.930  0.00  0.00     0.066 A 
BRANCH   8  33
ATOM     33  C   UNK d   0     -16.025   0.784  -3.939  0.00  0.00     0.151 C 
BRANCH  33  34
ATOM     34  C   UNK d   0     -15.347  -0.048  -2.929  0.00  0.00     0.143 C 
ATOM     35  O   UNK d   0     -15.904  -1.045  -2.448  0.00  0.00    -0.650 OA
BRANCH  34  36
ATOM     36  O   UNK d   0     -14.078   0.289  -2.517  0.00  0.00    -0.776 OA
ATOM     37  H   UNK d   0     -13.395   0.697  -3.169  0.00  0.00     0.167 HD
ENDBRANCH  34  36
ENDBRANCH  33  34
ENDBRANCH   8  33
BRANCH  31  38
ATOM     38  C   UNK d   0     -10.197   2.246  -8.639  0.00  0.00     0.151 C 
BRANCH  38  39
ATOM     39  C   UNK d   0     -10.079   3.665  -8.896  0.00  0.00     0.143 C 
ATOM     40  O   UNK d   0     -11.068   4.386  -9.117  0.00  0.00    -0.650 OA
BRANCH  39  41
ATOM     41  O   UNK d   0      -8.817   4.259  -8.899  0.00  0.00    -0.776 OA
ATOM     42  H   UNK d   0      -8.775   5.255  -8.662  0.00  0.00     0.167 HD
ENDBRANCH  39  41
ENDBRANCH  38  39
ENDBRANCH  31  38
BRANCH  27  43
ATOM     43  C   UNK d   0      -9.896   0.939 -11.415  0.00  0.00     0.052 C 
BRANCH  43  44
ATOM     44  C   UNK d   0      -9.512   2.235 -12.052  0.00  0.00     0.115 C 
BRANCH  44  45
ATOM     45  C   UNK d   0      -9.267   1.947 -13.489  0.00  0.00     0.139 C 
ATOM     46  O   UNK d   0     -10.261   1.739 -14.228  0.00  0.00    -0.650 OA
BRANCH  45  47
ATOM     47  O   UNK d   0      -8.004   1.904 -14.038  0.00  0.00    -0.776 OA
ATOM     48  H   UNK d   0      -7.420   1.052 -14.036  0.00  0.00     0.167 HD
ENDBRANCH  45  47
ENDBRANCH  44  45
ENDBRANCH  43  44
ENDBRANCH  27  43
BRANCH  24  49
ATOM     49  C   UNK d   0     -12.929  -2.114 -14.899  0.00  0.00     0.052 C 
BRANCH  49  50
ATOM     50  C   UNK d   0     -13.339  -0.841 -15.594  0.00  0.00     0.115 C 
BRANCH  50  51
ATOM     51  C   UNK d   0     -14.757  -0.667 -15.880  0.00  0.00     0.139 C 
ATOM     52  O   UNK d   0     -15.487   0.116 -15.229  0.00  0.00    -0.650 OA
BRANCH  51  53
ATOM     53  O   UNK d   0     -15.343  -1.390 -16.908  0.00  0.00    -0.776 OA
ATOM     54  H   UNK d   0     -15.113  -2.364 -16.996  0.00  0.00     0.167 HD
ENDBRANCH  51  53
ENDBRANCH  50  51
ENDBRANCH  49  50
ENDBRANCH  24  49
BRANCH  21  55
ATOM     55  C   UNK d   0     -14.885  -4.321 -13.977  0.00  0.00     0.151 C 
BRANCH  55  56
ATOM     56  C   UNK d   0     -14.271  -5.581 -13.532  0.00  0.00     0.143 C 
ATOM     57  O   UNK d   0     -13.118  -5.642 -13.063  0.00  0.00    -0.650 OA
BRANCH  56  58
ATOM     58  O   UNK d   0     -15.026  -6.747 -13.649  0.00  0.00    -0.776 OA
ATOM     59  H   UNK d   0     -15.118  -7.113 -14.614  0.00  0.00     0.167 HD
ENDBRANCH  56  58
ENDBRANCH  55  56
ENDBRANCH  21  55
BRANCH  18  60
ATOM     60  C   UNK d   0     -18.490  -3.763 -10.039  0.00  0.00     0.151 C 
BRANCH  60  61
ATOM     61  C   UNK d   0     -18.896  -2.785 -11.059  0.00  0.00     0.143 C 
ATOM     62  O   UNK d   0     -19.058  -1.574 -10.903  0.00  0.00    -0.650 OA
BRANCH  61  63
ATOM     63  O   UNK d   0     -19.119  -3.319 -12.351  0.00  0.00    -0.776 OA
ATOM     64  H   UNK d   0     -19.254  -4.305 -12.488  0.00  0.00     0.167 HD
ENDBRANCH  61  63
ENDBRANCH  60  61
ENDBRANCH  18  60
BRANCH  14  65
ATOM     65  C   UNK d   0     -18.757  -2.593  -7.252  0.00  0.00     0.052 C 
BRANCH  65  66
ATOM     66  C   UNK d   0     -19.706  -1.509  -7.622  0.00  0.00     0.115 C 
BRANCH  66  67
ATOM     67  C   UNK d   0     -19.930  -0.418  -6.717  0.00  0.00     0.139 C 
ATOM     68  O   UNK d   0     -19.165  -0.307  -5.689  0.00  0.00    -0.650 OA
BRANCH  67  69
ATOM     69  O   UNK d   0     -20.902   0.578  -6.803  0.00  0.00    -0.776 OA
ATOM     70  H   UNK d   0     -21.738   0.341  -7.357  0.00  0.00     0.167 HD
ENDBRANCH  67  69
ENDBRANCH  66  67
ENDBRANCH  65  66
ENDBRANCH  14  65
ENDBRANCH   6   7
ENDBRANCH   5   6
ENDBRANCH   2   5
TORSDOF 28
ENDMDL
MODEL 3
REMARK VINA RESULT:      -9.3      1.990      2.782
REMARK  28 active torsions:
REMARK  status: ('A' for Active; 'I' for Inactive)
REMARK    1  A    between atoms: C_2  and  O_3 
REMARK    2  A    between atoms: C_2  and  C_4 
REMARK    3  A    between atoms: C_4  and  C_5 
REMARK    4  A    between atoms: C_5  and  C_6 
REMARK    5  A    between atoms: C_7  and  C_8 
REMARK    6  A    between atoms: C_8  and  C_9 
REMARK    7  A    between atoms: C_9  and  O_11 
REMARK    8  A    between atoms: C_28  and  C_29 
REMARK    9  A    between atoms: C_29  and  C_30 
REMARK   10  A    between atoms: C_30  and  O_32 
REMARK   11  A    between atoms: C_33  and  C_34 
REMARK   12  A    between atoms: C_34  and  C_35 
REMARK   13  A    between atoms: C_35  and  C_36 
REMARK   14  A    between atoms: C_36  and  O_38 
REMARK   15  A    between atoms: C_39  and  C_40 
REMARK   16  A    between atoms: C_40  and  C_41 
REMARK   17  A    between atoms: C_41  and  C_42 
REMARK   18  A    between atoms: C_42  and  O_44 
REMARK   19  A    between atoms: C_45  and  C_46 
REMARK   20  A    between atoms: C_46  and  C_47 
REMARK   21  A    between atoms: C_47  and  O_49 
REMARK   22  A    between atoms: C_50  and  C_51 
REMARK   23  A    between atoms: C_51  and  C_52 
REMARK   24  A    between atoms: C_52  and  O_54 
REMARK   25  A    between atoms: C_55  and  C_56 
REMARK   26  A    between atoms: C_56  and  C_57 
REMARK   27  A    between atoms: C_57  and  C_58 
REMARK   28  A    between atoms: C_58  and  O_60 
ROOT
ATOM      1  O   UNK d   0      11.439  -8.101  16.596  0.00  0.00    -0.650 OA
ATOM      2  C   UNK d   0      11.822  -7.507  15.564  0.00  0.00     0.139 C 
ENDROOT
BRANCH   2   3
ATOM      3  O   UNK d   0      12.008  -8.223  14.405  0.00  0.00    -0.776 OA
ATOM      4  H   UNK d   0      11.740  -7.836  13.498  0.00  0.00     0.167 HD
ENDBRANCH   2   3
BRANCH   2   5
ATOM      5  C   UNK d   0      12.074  -6.039  15.595  0.00  0.00     0.115 C 
BRANCH   5   6
ATOM      6  C   UNK d   0      10.885  -5.298  15.046  0.00  0.00     0.052 C 
BRANCH   6   7
ATOM      7  C   UNK d   0      11.198  -4.565  13.763  0.00  0.00    -0.020 A 
ATOM      8  C   UNK d   0      11.677  -3.354  13.632  0.00  0.00    -0.011 A 
ATOM      9  C   UNK d   0      11.804  -3.077  12.211  0.00  0.00     0.067 A 
ATOM     10  C   UNK d   0      12.258  -2.007  11.425  0.00  0.00     0.062 C 
ATOM     11  N   UNK d   0      11.375  -4.173  11.550  0.00  0.00    -0.248 NA
ATOM     12  C   UNK d   0      12.567  -2.029  10.060  0.00  0.00     0.041 A 
ATOM     13  N   UNK d   0      11.933  -2.599   9.017  0.00  0.00    -0.355 N 
ATOM     14  C   UNK d   0      13.756  -1.420   9.622  0.00  0.00    -0.022 A 
ATOM     15  C   UNK d   0      12.695  -2.374   7.930  0.00  0.00     0.042 A 
ATOM     16  H   UNK d   0      10.958  -3.133   9.046  0.00  0.00     0.166 HD
ATOM     17  C   UNK d   0      12.500  -2.748   6.585  0.00  0.00     0.062 C 
ATOM     18  C   UNK d   0      13.846  -1.637   8.269  0.00  0.00    -0.013 A 
ATOM     19  C   UNK d   0      12.098  -3.956   6.076  0.00  0.00     0.067 A 
ATOM     20  N   UNK d   0      11.635  -4.856   6.948  0.00  0.00    -0.248 NA
ATOM     21  C   UNK d   0      12.049  -4.571   4.760  0.00  0.00    -0.011 A 
ATOM     22  C   UNK d   0      11.288  -6.015   6.297  0.00  0.00     0.066 A 
ATOM     23  C   UNK d   0      10.754  -7.026   7.082  0.00  0.00     0.062 C 
ATOM     24  C   UNK d   0      11.578  -5.777   4.897  0.00  0.00    -0.020 A 
ATOM     25  C   UNK d   0      10.440  -6.979   8.449  0.00  0.00     0.041 A 
ATOM     26  N   UNK d   0      11.076  -6.426   9.488  0.00  0.00    -0.355 N 
ATOM     27  C   UNK d   0       9.243  -7.587   8.888  0.00  0.00    -0.022 A 
ATOM     28  C   UNK d   0      10.324  -6.657  10.575  0.00  0.00     0.042 A 
ATOM     29  H   UNK d   0      12.062  -5.898   9.459  0.00  0.00     0.166 HD
ATOM     30  C   UNK d   0      10.510  -6.298  11.920  0.00  0.00     0.062 C 
ATOM     31  C   UNK d   0       9.162  -7.387  10.231  0.00  0.00    -0.013 A 
ATOM     32  C   UNK d   0      10.997  -5.104  12.426  0.00  0.00     0.066 A 
BRANCH   8  33
ATOM     33  C   UNK d   0      12.026  -2.419  14.717  0.00  0.00     0.151 C 
BRANCH  33  34
ATOM     34  C   UNK d   0      10.922  -1.503  15.058  0.00  0.00     0.143 C 
ATOM     35  O   UNK d   0      10.069  -1.820  15.899  0.00  0.00    -0.650 OA
BRANCH  34  36
ATOM     36  O   UNK d   0      10.841  -0.281  14.432  0.00  0.00    -0.776 OA
ATOM     37  H   UNK d   0      10.064  -0.058  13.795  0.00  0.00     0.167 HD
ENDBRANCH  34  36
ENDBRANCH  33  34
ENDBRANCH   8  33
BRANCH  31  38
ATOM     38  C   UNK d   0       8.043  -7.850  11.135  0.00  0.00     0.151 C 
BRANCH  38  39
ATOM     39  C   UNK d   0       6.751  -7.329  10.741  0.00  0.00     0.143 C 
ATOM     40  O   UNK d   0       6.578  -6.134  10.442  0.00  0.00    -0.650 OA
BRANCH  39  41
ATOM     41  O   UNK d   0       5.652  -8.186  10.689  0.00  0.00    -0.776 OA
ATOM     42  H   UNK d   0       5.825  -9.172  10.913  0.00  0.00     0.167 HD
ENDBRANCH  39  41
ENDBRANCH  38  39
ENDBRANCH  31  38
BRANCH  27  43
ATOM     43  C   UNK d   0       8.201  -8.335   8.094  0.00  0.00     0.052 C 
BRANCH  43  44
ATOM     44  C   UNK d   0       8.577  -9.755   7.816  0.00  0.00     0.115 C 
BRANCH  44  45
ATOM     45  C   UNK d   0       7.608 -10.603   8.559  0.00  0.00     0.139 C 
ATOM     46  O   UNK d   0       6.446 -10.160   8.734  0.00  0.00    -0.650 OA
BRANCH  45  47
ATOM     47  O   UNK d   0       7.931 -11.848   9.053  0.00  0.00    -0.776 OA
ATOM     48  H   UNK d   0       8.595 -11.987   9.832  0.00  0.00     0.167 HD
ENDBRANCH  45  47
ENDBRANCH  44  45
ENDBRANCH  43  44
ENDBRANCH  27  43
BRANCH  24  49
ATOM     49  C   UNK d   0      11.325  -6.739   3.810  0.00  0.00     0.052 C 
BRANCH  49  50
ATOM     50  C   UNK d   0      12.555  -7.569   3.548  0.00  0.00     0.115 C 
BRANCH  50  51
ATOM     51  C   UNK d   0      13.364  -7.213   2.391  0.00  0.00     0.139 C 
ATOM     52  O   UNK d   0      12.931  -7.280   1.216  0.00  0.00    -0.650 OA
BRANCH  51  53
ATOM     53  O   UNK d   0      14.669  -6.781   2.573  0.00  0.00    -0.776 OA
ATOM     54  H   UNK d   0      14.823  -5.815   2.801  0.00  0.00     0.167 HD
ENDBRANCH  51  53
ENDBRANCH  50  51
ENDBRANCH  49  50
ENDBRANCH  24  49
BRANCH  21  55
ATOM     55  C   UNK d   0      12.473  -3.887   3.503  0.00  0.00     0.151 C 
BRANCH  55  56
ATOM     56  C   UNK d   0      13.877  -3.451   3.559  0.00  0.00     0.143 C 
ATOM     57  O   UNK d   0      14.803  -4.203   3.921  0.00  0.00    -0.650 OA
BRANCH  56  58
ATOM     58  O   UNK d   0      14.164  -2.139   3.187  0.00  0.00    -0.776 OA
ATOM     59  H   UNK d   0      15.099  -1.798   3.477  0.00  0.00     0.167 HD
ENDBRANCH  56  58
ENDBRANCH  55  56
ENDBRANCH  21  55
BRANCH  18  60
ATOM     60  C   UNK d   0      14.976  -1.161   7.390  0.00  0.00     0.151 C 
BRANCH  60  61
ATOM     61  C   UNK d   0      14.500   0.079   6.758  0.00  0.00     0.143 C 
ATOM     62  O   UNK d   0      14.435   1.197   7.272  0.00  0.00    -0.650 OA
BRANCH  61  63
ATOM     63  O   UNK d   0      14.076  -0.054   5.414  0.00  0.00    -0.776 OA
ATOM     64  H   UNK d   0      14.733  -0.004   4.656  0.00  0.00     0.167 HD
ENDBRANCH  61  63
ENDBRANCH  60  61
ENDBRANCH  18  60
BRANCH  14  65
ATOM     65  C   UNK d   0      14.754  -0.572  10.359  0.00  0.00     0.052 C 
BRANCH  65  66
ATOM     66  C   UNK d   0      15.729  -1.373  11.146  0.00  0.00     0.115 C 
BRANCH  66  67
ATOM     67  C   UNK d   0      16.869  -1.951  10.491  0.00  0.00     0.139 C 
ATOM     68  O   UNK d   0      17.019  -3.227  10.533  0.00  0.00    -0.650 OA
BRANCH  67  69
ATOM     69  O   UNK d   0      17.875  -1.289   9.789  0.00  0.00    -0.776 OA
ATOM     70  H   UNK d   0      18.391  -0.570  10.316  0.00  0.00     0.167 HD
ENDBRANCH  67  69
ENDBRANCH  66  67
ENDBRANCH  65  66
ENDBRANCH  14  65
ENDBRANCH   6   7
ENDBRANCH   5   6
ENDBRANCH   2   5
TORSDOF 28
ENDMDL
MODEL 4
REMARK VINA RESULT:      -9.3      2.153     10.011
REMARK  28 active torsions:
REMARK  status: ('A' for Active; 'I' for Inactive)
REMARK    1  A    between atoms: C_2  and  O_3 
REMARK    2  A    between atoms: C_2  and  C_4 
REMARK    3  A    between atoms: C_4  and  C_5 
REMARK    4  A    between atoms: C_5  and  C_6 
REMARK    5  A    between atoms: C_7  and  C_8 
REMARK    6  A    between atoms: C_8  and  C_9 
REMARK    7  A    between atoms: C_9  and  O_11 
REMARK    8  A    between atoms: C_28  and  C_29 
REMARK    9  A    between atoms: C_29  and  C_30 
REMARK   10  A    between atoms: C_30  and  O_32 
REMARK   11  A    between atoms: C_33  and  C_34 
REMARK   12  A    between atoms: C_34  and  C_35 
REMARK   13  A    between atoms: C_35  and  C_36 
REMARK   14  A    between atoms: C_36  and  O_38 
REMARK   15  A    between atoms: C_39  and  C_40 
REMARK   16  A    between atoms: C_40  and  C_41 
REMARK   17  A    between atoms: C_41  and  C_42 
REMARK   18  A    between atoms: C_42  and  O_44 
REMARK   19  A    between atoms: C_45  and  C_46 
REMARK   20  A    between atoms: C_46  and  C_47 
REMARK   21  A    between atoms: C_47  and  O_49 
REMARK   22  A    between atoms: C_50  and  C_51 
REMARK   23  A    between atoms: C_51  and  C_52 
REMARK   24  A    between atoms: C_52  and  O_54 
REMARK   25  A    between atoms: C_55  and  C_56 
REMARK   26  A    between atoms: C_56  and  C_57 
REMARK   27  A    between atoms: C_57  and  C_58 
REMARK   28  A    between atoms: C_58  and  O_60 
ROOT
ATOM      1  O   UNK d   0      17.661   0.919   7.826  0.00  0.00    -0.650 OA
ATOM      2  C   UNK d   0      17.621  -0.195   8.395  0.00  0.00     0.139 C 
ENDROOT
BRANCH   2   3
ATOM      3  O   UNK d   0      18.796  -0.813   8.749  0.00  0.00    -0.776 OA
ATOM      4  H   UNK d   0      19.654  -0.661   8.215  0.00  0.00     0.167 HD
ENDBRANCH   2   3
BRANCH   2   5
ATOM      5  C   UNK d   0      16.310  -0.841   8.683  0.00  0.00     0.115 C 
BRANCH   5   6
ATOM      6  C   UNK d   0      16.476  -2.334   8.770  0.00  0.00     0.052 C 
BRANCH   6   7
ATOM      7  C   UNK d   0      15.156  -3.064   8.832  0.00  0.00    -0.020 A 
ATOM      8  C   UNK d   0      14.503  -3.617   7.842  0.00  0.00    -0.011 A 
ATOM      9  C   UNK d   0      13.281  -4.190   8.381  0.00  0.00     0.067 A 
ATOM     10  C   UNK d   0      12.192  -4.916   7.872  0.00  0.00     0.062 C 
ATOM     11  N   UNK d   0      13.269  -3.935   9.706  0.00  0.00    -0.248 NA
ATOM     12  C   UNK d   0      11.235  -5.630   8.601  0.00  0.00     0.041 A 
ATOM     13  N   UNK d   0      10.573  -5.324   9.732  0.00  0.00    -0.355 N 
ATOM     14  C   UNK d   0      10.884  -6.925   8.177  0.00  0.00    -0.022 A 
ATOM     15  C   UNK d   0       9.816  -6.394  10.042  0.00  0.00     0.042 A 
ATOM     16  H   UNK d   0      10.624  -4.363  10.290  0.00  0.00     0.166 HD
ATOM     17  C   UNK d   0       8.933  -6.607  11.119  0.00  0.00     0.062 C 
ATOM     18  C   UNK d   0       9.985  -7.418   9.090  0.00  0.00    -0.013 A 
ATOM     19  C   UNK d   0       9.110  -6.325  12.449  0.00  0.00     0.067 A 
ATOM     20  N   UNK d   0      10.165  -5.573  12.772  0.00  0.00    -0.248 NA
ATOM     21  C   UNK d   0       8.425  -6.656  13.688  0.00  0.00    -0.011 A 
ATOM     22  C   UNK d   0      10.221  -5.389  14.132  0.00  0.00     0.066 A 
ATOM     23  C   UNK d   0      11.252  -4.590  14.604  0.00  0.00     0.062 C 
ATOM     24  C   UNK d   0       9.082  -6.108  14.669  0.00  0.00    -0.020 A 
ATOM     25  C   UNK d   0      12.195  -3.871  13.855  0.00  0.00     0.041 A 
ATOM     26  N   UNK d   0      12.865  -4.181  12.738  0.00  0.00    -0.355 N 
ATOM     27  C   UNK d   0      12.544  -2.570  14.278  0.00  0.00    -0.022 A 
ATOM     28  C   UNK d   0      13.627  -3.119  12.432  0.00  0.00     0.042 A 
ATOM     29  H   UNK d   0      12.821  -5.151  12.184  0.00  0.00     0.166 HD
ATOM     30  C   UNK d   0      14.517  -2.897  11.370  0.00  0.00     0.062 C 
ATOM     31  C   UNK d   0      13.448  -2.086  13.383  0.00  0.00    -0.013 A 
ATOM     32  C   UNK d   0      14.370  -3.260  10.041  0.00  0.00     0.066 A 
BRANCH   8  33
ATOM     33  C   UNK d   0      14.910  -3.658   6.426  0.00  0.00     0.151 C 
BRANCH  33  34
ATOM     34  C   UNK d   0      14.105  -2.764   5.574  0.00  0.00     0.143 C 
ATOM     35  O   UNK d   0      14.392  -1.563   5.462  0.00  0.00    -0.650 OA
BRANCH  34  36
ATOM     36  O   UNK d   0      13.021  -3.272   4.897  0.00  0.00    -0.776 OA
ATOM     37  H   UNK d   0      12.557  -2.735   4.152  0.00  0.00     0.167 HD
ENDBRANCH  34  36
ENDBRANCH  33  34
ENDBRANCH   8  33
BRANCH  31  38
ATOM     38  C   UNK d   0      14.096  -0.722  13.419  0.00  0.00     0.151 C 
BRANCH  38  39
ATOM     39  C   UNK d   0      13.481   0.216  12.505  0.00  0.00     0.143 C 
ATOM     40  O   UNK d   0      12.277   0.153  12.196  0.00  0.00    -0.650 OA
BRANCH  39  41
ATOM     41  O   UNK d   0      14.252   1.233  11.942  0.00  0.00    -0.776 OA
ATOM     42  H   UNK d   0      15.127   0.952  11.489  0.00  0.00     0.167 HD
ENDBRANCH  39  41
ENDBRANCH  38  39
ENDBRANCH  31  38
BRANCH  27  43
ATOM     43  C   UNK d   0      12.061  -1.790  15.475  0.00  0.00     0.052 C 
BRANCH  43  44
ATOM     44  C   UNK d   0      10.829  -0.989  15.201  0.00  0.00     0.115 C 
BRANCH  44  45
ATOM     45  C   UNK d   0      10.790   0.092  16.219  0.00  0.00     0.139 C 
ATOM     46  O   UNK d   0      10.509   1.255  15.837  0.00  0.00    -0.650 OA
BRANCH  45  47
ATOM     47  O   UNK d   0      11.043  -0.130  17.555  0.00  0.00    -0.776 OA
ATOM     48  H   UNK d   0      11.306   0.625  18.209  0.00  0.00     0.167 HD
ENDBRANCH  45  47
ENDBRANCH  44  45
ENDBRANCH  43  44
ENDBRANCH  27  43
BRANCH  24  49
ATOM     49  C   UNK d   0       8.715  -6.158  16.095  0.00  0.00     0.052 C 
BRANCH  49  50
ATOM     50  C   UNK d   0       9.919  -6.503  16.934  0.00  0.00     0.115 C 
BRANCH  50  51
ATOM     51  C   UNK d   0      10.431  -7.863  16.835  0.00  0.00     0.139 C 
ATOM     52  O   UNK d   0      11.632  -8.117  16.581  0.00  0.00    -0.650 OA
BRANCH  51  53
ATOM     53  O   UNK d   0       9.572  -8.935  17.023  0.00  0.00    -0.776 OA
ATOM     54  H   UNK d   0       9.480  -9.607  16.281  0.00  0.00     0.167 HD
ENDBRANCH  51  53
ENDBRANCH  50  51
ENDBRANCH  49  50
ENDBRANCH  24  49
BRANCH  21  55
ATOM     55  C   UNK d   0       7.183  -7.481  13.761  0.00  0.00     0.151 C 
BRANCH  55  56
ATOM     56  C   UNK d   0       7.473  -8.921  13.689  0.00  0.00     0.143 C 
ATOM     57  O   UNK d   0       7.888  -9.576  14.665  0.00  0.00    -0.650 OA
BRANCH  56  58
ATOM     58  O   UNK d   0       7.268  -9.565  12.469  0.00  0.00    -0.776 OA
ATOM     59  H   UNK d   0       7.250 -10.599  12.520  0.00  0.00     0.167 HD
ENDBRANCH  56  58
ENDBRANCH  55  56
ENDBRANCH  21  55
BRANCH  18  60
ATOM     60  C   UNK d   0       9.351  -8.786   9.027  0.00  0.00     0.151 C 
BRANCH  60  61
ATOM     61  C   UNK d   0       7.983  -8.574   8.531  0.00  0.00     0.143 C 
ATOM     62  O   UNK d   0       7.651  -8.177   7.414  0.00  0.00    -0.650 OA
BRANCH  61  63
ATOM     63  O   UNK d   0       6.954  -8.867   9.459  0.00  0.00    -0.776 OA
ATOM     64  H   UNK d   0       6.723  -8.224  10.196  0.00  0.00     0.167 HD
ENDBRANCH  61  63
ENDBRANCH  60  61
ENDBRANCH  18  60
BRANCH  14  65
ATOM     65  C   UNK d   0      11.254  -7.685   6.935  0.00  0.00     0.052 C 
BRANCH  65  66
ATOM     66  C   UNK d   0      10.461  -7.277   5.745  0.00  0.00     0.115 C 
BRANCH  66  67
ATOM     67  C   UNK d   0      11.135  -6.824   4.561  0.00  0.00     0.139 C 
ATOM     68  O   UNK d   0      12.204  -6.122   4.694  0.00  0.00    -0.650 OA
BRANCH  67  69
ATOM     69  O   UNK d   0      10.774  -7.051   3.234  0.00  0.00    -0.776 OA
ATOM     70  H   UNK d   0      11.495  -7.487   2.641  0.00  0.00     0.167 HD
ENDBRANCH  67  69
ENDBRANCH  66  67
ENDBRANCH  65  66
ENDBRANCH  14  65
ENDBRANCH   6   7
ENDBRANCH   5   6
ENDBRANCH   2   5
TORSDOF 28
ENDMDL
MODEL 5
REMARK VINA RESULT:      -9.2      1.364      7.795
REMARK  28 active torsions:
REMARK  status: ('A' for Active; 'I' for Inactive)
REMARK    1  A    between atoms: C_2  and  O_3 
REMARK    2  A    between atoms: C_2  and  C_4 
REMARK    3  A    between atoms: C_4  and  C_5 
REMARK    4  A    between atoms: C_5  and  C_6 
REMARK    5  A    between atoms: C_7  and  C_8 
REMARK    6  A    between atoms: C_8  and  C_9 
REMARK    7  A    between atoms: C_9  and  O_11 
REMARK    8  A    between atoms: C_28  and  C_29 
REMARK    9  A    between atoms: C_29  and  C_30 
REMARK   10  A    between atoms: C_30  and  O_32 
REMARK   11  A    between atoms: C_33  and  C_34 
REMARK   12  A    between atoms: C_34  and  C_35 
REMARK   13  A    between atoms: C_35  and  C_36 
REMARK   14  A    between atoms: C_36  and  O_38 
REMARK   15  A    between atoms: C_39  and  C_40 
REMARK   16  A    between atoms: C_40  and  C_41 
REMARK   17  A    between atoms: C_41  and  C_42 
REMARK   18  A    between atoms: C_42  and  O_44 
REMARK   19  A    between atoms: C_45  and  C_46 
REMARK   20  A    between atoms: C_46  and  C_47 
REMARK   21  A    between atoms: C_47  and  O_49 
REMARK   22  A    between atoms: C_50  and  C_51 
REMARK   23  A    between atoms: C_51  and  C_52 
REMARK   24  A    between atoms: C_52  and  O_54 
REMARK   25  A    between atoms: C_55  and  C_56 
REMARK   26  A    between atoms: C_56  and  C_57 
REMARK   27  A    between atoms: C_57  and  C_58 
REMARK   28  A    between atoms: C_58  and  O_60 
ROOT
ATOM      1  O   UNK d   0      10.708   1.304  16.686  0.00  0.00    -0.650 OA
ATOM      2  C   UNK d   0      11.056   0.839  15.579  0.00  0.00     0.139 C 
ENDROOT
BRANCH   2   3
ATOM      3  O   UNK d   0      11.822   1.608  14.736  0.00  0.00    -0.776 OA
ATOM      4  H   UNK d   0      12.073   2.568  14.980  0.00  0.00     0.167 HD
ENDBRANCH   2   3
BRANCH   2   5
ATOM      5  C   UNK d   0      10.642  -0.537  15.181  0.00  0.00     0.115 C 
BRANCH   5   6
ATOM      6  C   UNK d   0      11.849  -1.430  15.073  0.00  0.00     0.052 C 
BRANCH   6   7
ATOM      7  C   UNK d   0      11.716  -2.456  13.973  0.00  0.00    -0.020 A 
ATOM      8  C   UNK d   0      11.414  -3.723  14.096  0.00  0.00    -0.011 A 
ATOM      9  C   UNK d   0      11.413  -4.311  12.767  0.00  0.00     0.067 A 
ATOM     10  C   UNK d   0      11.156  -5.578  12.221  0.00  0.00     0.062 C 
ATOM     11  N   UNK d   0      11.730  -3.331  11.895  0.00  0.00    -0.248 NA
ATOM     12  C   UNK d   0      10.932  -5.891  10.876  0.00  0.00     0.041 A 
ATOM     13  N   UNK d   0      11.545  -5.470   9.753  0.00  0.00    -0.355 N 
ATOM     14  C   UNK d   0       9.864  -6.746  10.545  0.00  0.00    -0.022 A 
ATOM     15  C   UNK d   0      10.889  -6.029   8.718  0.00  0.00     0.042 A 
ATOM     16  H   UNK d   0      12.436  -4.806   9.694  0.00  0.00     0.166 HD
ATOM     17  C   UNK d   0      11.114  -5.925   7.331  0.00  0.00     0.062 C 
ATOM     18  C   UNK d   0       9.829  -6.836   9.176  0.00  0.00    -0.013 A 
ATOM     19  C   UNK d   0      11.379  -4.807   6.582  0.00  0.00     0.067 A 
ATOM     20  N   UNK d   0      11.662  -3.685   7.249  0.00  0.00    -0.248 NA
ATOM     21  C   UNK d   0      11.426  -4.486   5.166  0.00  0.00    -0.011 A 
ATOM     22  C   UNK d   0      11.889  -2.653   6.372  0.00  0.00     0.066 A 
ATOM     23  C   UNK d   0      12.233  -1.432   6.933  0.00  0.00     0.062 C 
ATOM     24  C   UNK d   0      11.720  -3.223   5.049  0.00  0.00    -0.020 A 
ATOM     25  C   UNK d   0      12.466  -1.142   8.286  0.00  0.00     0.041 A 
ATOM     26  N   UNK d   0      11.847  -1.548   9.400  0.00  0.00    -0.355 N 
ATOM     27  C   UNK d   0      13.540  -0.287   8.617  0.00  0.00    -0.022 A 
ATOM     28  C   UNK d   0      12.494  -0.985  10.433  0.00  0.00     0.042 A 
ATOM     29  H   UNK d   0      10.946  -2.207   9.458  0.00  0.00     0.166 HD
ATOM     30  C   UNK d   0      12.276  -1.073  11.817  0.00  0.00     0.062 C 
ATOM     31  C   UNK d   0      13.566  -0.183   9.974  0.00  0.00    -0.013 A 
ATOM     32  C   UNK d   0      11.924  -2.190  12.558  0.00  0.00     0.066 A 
BRANCH   8  33
ATOM     33  C   UNK d   0      11.129  -4.448  15.349  0.00  0.00     0.151 C 
BRANCH  33  34
ATOM     34  C   UNK d   0      12.089  -5.535  15.611  0.00  0.00     0.143 C 
ATOM     35  O   UNK d   0      11.698  -6.667  15.928  0.00  0.00    -0.650 OA
BRANCH  34  36
ATOM     36  O   UNK d   0      13.438  -5.285  15.502  0.00  0.00    -0.776 OA
ATOM     37  H   UNK d   0      14.124  -6.052  15.500  0.00  0.00     0.167 HD
ENDBRANCH  34  36
ENDBRANCH  33  34
ENDBRANCH   8  33
BRANCH  31  38
ATOM     38  C   UNK d   0      14.555   0.618  10.788  0.00  0.00     0.151 C 
BRANCH  38  39
ATOM     39  C   UNK d   0      14.107   1.970  11.043  0.00  0.00     0.143 C 
ATOM     40  O   UNK d   0      13.429   2.270  12.042  0.00  0.00    -0.650 OA
BRANCH  39  41
ATOM     41  O   UNK d   0      14.441   2.984  10.146  0.00  0.00    -0.776 OA
ATOM     42  H   UNK d   0      15.385   3.375  10.222  0.00  0.00     0.167 HD
ENDBRANCH  39  41
ENDBRANCH  38  39
ENDBRANCH  31  38
BRANCH  27  43
ATOM     43  C   UNK d   0      14.518   0.418   7.711  0.00  0.00     0.052 C 
BRANCH  43  44
ATOM     44  C   UNK d   0      15.800  -0.328   7.530  0.00  0.00     0.115 C 
BRANCH  44  45
ATOM     45  C   UNK d   0      16.891   0.596   7.935  0.00  0.00     0.139 C 
ATOM     46  O   UNK d   0      16.593   1.792   8.177  0.00  0.00    -0.650 OA
BRANCH  45  47
ATOM     47  O   UNK d   0      18.203   0.194   8.061  0.00  0.00    -0.776 OA
ATOM     48  H   UNK d   0      18.932   0.789   8.487  0.00  0.00     0.167 HD
ENDBRANCH  45  47
ENDBRANCH  44  45
ENDBRANCH  43  44
ENDBRANCH  27  43
BRANCH  24  49
ATOM     49  C   UNK d   0      11.907  -2.487   3.787  0.00  0.00     0.052 C 
BRANCH  49  50
ATOM     50  C   UNK d   0      13.357  -2.511   3.376  0.00  0.00     0.115 C 
BRANCH  50  51
ATOM     51  C   UNK d   0      14.008  -1.225   3.162  0.00  0.00     0.139 C 
ATOM     52  O   UNK d   0      14.780  -1.010   2.198  0.00  0.00    -0.650 OA
BRANCH  51  53
ATOM     53  O   UNK d   0      13.781  -0.185   4.050  0.00  0.00    -0.776 OA
ATOM     54  H   UNK d   0      13.041  -0.286   4.722  0.00  0.00     0.167 HD
ENDBRANCH  51  53
ENDBRANCH  50  51
ENDBRANCH  49  50
ENDBRANCH  24  49
BRANCH  21  55
ATOM     55  C   UNK d   0      11.175  -5.475   4.076  0.00  0.00     0.151 C 
BRANCH  55  56
ATOM     56  C   UNK d   0      12.338  -6.345   3.843  0.00  0.00     0.143 C 
ATOM     57  O   UNK d   0      13.409  -5.925   3.361  0.00  0.00    -0.650 OA
BRANCH  56  58
ATOM     58  O   UNK d   0      12.220  -7.691   4.181  0.00  0.00    -0.776 OA
ATOM     59  H   UNK d   0      11.959  -8.317   3.398  0.00  0.00     0.167 HD
ENDBRANCH  56  58
ENDBRANCH  55  56
ENDBRANCH  21  55
BRANCH  18  60
ATOM     60  C   UNK d   0       8.830  -7.647   8.388  0.00  0.00     0.151 C 
BRANCH  60  61
ATOM     61  C   UNK d   0       9.288  -9.042   8.472  0.00  0.00     0.143 C 
ATOM     62  O   UNK d   0      10.372  -9.492   8.099  0.00  0.00    -0.650 OA
BRANCH  61  63
ATOM     63  O   UNK d   0       8.363  -9.946   9.048  0.00  0.00    -0.776 OA
ATOM     64  H   UNK d   0       7.947  -9.762   9.943  0.00  0.00     0.167 HD
ENDBRANCH  61  63
ENDBRANCH  60  61
ENDBRANCH  18  60
BRANCH  14  65
ATOM     65  C   UNK d   0       8.947  -7.553  11.419  0.00  0.00     0.052 C 
BRANCH  65  66
ATOM     66  C   UNK d   0       7.640  -6.886  11.663  0.00  0.00     0.115 C 
BRANCH  66  67
ATOM     67  C   UNK d   0       6.499  -7.245  10.870  0.00  0.00     0.139 C 
ATOM     68  O   UNK d   0       6.211  -8.491  10.736  0.00  0.00    -0.650 OA
BRANCH  67  69
ATOM     69  O   UNK d   0       5.625  -6.391  10.197  0.00  0.00    -0.776 OA
ATOM     70  H   UNK d   0       5.535  -6.551   9.183  0.00  0.00     0.167 HD
ENDBRANCH  67  69
ENDBRANCH  66  67
ENDBRANCH  65  66
ENDBRANCH  14  65
ENDBRANCH   6   7
ENDBRANCH   5   6
ENDBRANCH   2   5
TORSDOF 28
ENDMDL
MODEL 6
REMARK VINA RESULT:      -9.2      2.677      8.939
REMARK  28 active torsions:
REMARK  status: ('A' for Active; 'I' for Inactive)
REMARK    1  A    between atoms: C_2  and  O_3 
REMARK    2  A    between atoms: C_2  and  C_4 
REMARK    3  A    between atoms: C_4  and  C_5 
REMARK    4  A    between atoms: C_5  and  C_6 
REMARK    5  A    between atoms: C_7  and  C_8 
REMARK    6  A    between atoms: C_8  and  C_9 
REMARK    7  A    between atoms: C_9  and  O_11 
REMARK    8  A    between atoms: C_28  and  C_29 
REMARK    9  A    between atoms: C_29  and  C_30 
REMARK   10  A    between atoms: C_30  and  O_32 
REMARK   11  A    between atoms: C_33  and  C_34 
REMARK   12  A    between atoms: C_34  and  C_35 
REMARK   13  A    between atoms: C_35  and  C_36 
REMARK   14  A    between atoms: C_36  and  O_38 
REMARK   15  A    between atoms: C_39  and  C_40 
REMARK   16  A    between atoms: C_40  and  C_41 
REMARK   17  A    between atoms: C_41  and  C_42 
REMARK   18  A    between atoms: C_42  and  O_44 
REMARK   19  A    between atoms: C_45  and  C_46 
REMARK   20  A    between atoms: C_46  and  C_47 
REMARK   21  A    between atoms: C_47  and  O_49 
REMARK   22  A    between atoms: C_50  and  C_51 
REMARK   23  A    between atoms: C_51  and  C_52 
REMARK   24  A    between atoms: C_52  and  O_54 
REMARK   25  A    between atoms: C_55  and  C_56 
REMARK   26  A    between atoms: C_56  and  C_57 
REMARK   27  A    between atoms: C_57  and  C_58 
REMARK   28  A    between atoms: C_58  and  O_60 
ROOT
ATOM      1  O   UNK d   0       8.107 -12.802   8.347  0.00  0.00    -0.650 OA
ATOM      2  C   UNK d   0       7.797 -11.590   8.356  0.00  0.00     0.139 C 
ENDROOT
BRANCH   2   3
ATOM      3  O   UNK d   0       6.499 -11.229   8.626  0.00  0.00    -0.776 OA
ATOM      4  H   UNK d   0       6.226 -10.245   8.684  0.00  0.00     0.167 HD
ENDBRANCH   2   3
BRANCH   2   5
ATOM      5  C   UNK d   0       8.828 -10.551   8.075  0.00  0.00     0.115 C 
BRANCH   5   6
ATOM      6  C   UNK d   0       8.177  -9.205   7.916  0.00  0.00     0.052 C 
BRANCH   6   7
ATOM      7  C   UNK d   0       8.698  -8.187   8.902  0.00  0.00    -0.020 A 
ATOM      8  C   UNK d   0       8.278  -7.968  10.121  0.00  0.00    -0.011 A 
ATOM      9  C   UNK d   0       9.074  -6.888  10.680  0.00  0.00     0.067 A 
ATOM     10  C   UNK d   0       9.143  -6.212  11.908  0.00  0.00     0.062 C 
ATOM     11  N   UNK d   0       9.953  -6.505   9.730  0.00  0.00    -0.248 NA
ATOM     12  C   UNK d   0      10.172  -5.377  12.359  0.00  0.00     0.041 A 
ATOM     13  N   UNK d   0      10.877  -4.419  11.728  0.00  0.00    -0.355 N 
ATOM     14  C   UNK d   0      10.651  -5.537  13.672  0.00  0.00    -0.022 A 
ATOM     15  C   UNK d   0      11.796  -3.972  12.604  0.00  0.00     0.042 A 
ATOM     16  H   UNK d   0      10.715  -4.052  10.690  0.00  0.00     0.166 HD
ATOM     17  C   UNK d   0      12.784  -2.977  12.463  0.00  0.00     0.062 C 
ATOM     18  C   UNK d   0      11.686  -4.649  13.834  0.00  0.00    -0.013 A 
ATOM     19  C   UNK d   0      13.647  -2.761  11.420  0.00  0.00     0.067 A 
ATOM     20  N   UNK d   0      13.416  -3.440  10.293  0.00  0.00    -0.248 NA
ATOM     21  C   UNK d   0      14.832  -1.950  11.195  0.00  0.00    -0.011 A 
ATOM     22  C   UNK d   0      14.365  -3.133   9.349  0.00  0.00     0.066 A 
ATOM     23  C   UNK d   0      14.223  -3.743   8.111  0.00  0.00     0.062 C 
ATOM     24  C   UNK d   0      15.250  -2.175   9.983  0.00  0.00    -0.020 A 
ATOM     25  C   UNK d   0      13.175  -4.568   7.674  0.00  0.00     0.041 A 
ATOM     26  N   UNK d   0      12.484  -5.531   8.296  0.00  0.00    -0.355 N 
ATOM     27  C   UNK d   0      12.692  -4.404   6.357  0.00  0.00    -0.022 A 
ATOM     28  C   UNK d   0      11.573  -5.985   7.421  0.00  0.00     0.042 A 
ATOM     29  H   UNK d   0      12.655  -5.905   9.335  0.00  0.00     0.166 HD
ATOM     30  C   UNK d   0      10.590  -6.979   7.545  0.00  0.00     0.062 C 
ATOM     31  C   UNK d   0      11.678  -5.296   6.190  0.00  0.00    -0.013 A 
ATOM     32  C   UNK d   0       9.778  -7.248   8.636  0.00  0.00     0.066 A 
BRANCH   8  33
ATOM     33  C   UNK d   0       7.188  -8.674  10.821  0.00  0.00     0.151 C 
BRANCH  33  34
ATOM     34  C   UNK d   0       5.935  -7.899  10.854  0.00  0.00     0.143 C 
ATOM     35  O   UNK d   0       5.126  -7.956   9.917  0.00  0.00    -0.650 OA
BRANCH  34  36
ATOM     36  O   UNK d   0       5.663  -7.101  11.942  0.00  0.00    -0.776 OA
ATOM     37  H   UNK d   0       5.228  -7.486  12.791  0.00  0.00     0.167 HD
ENDBRANCH  34  36
ENDBRANCH  33  34
ENDBRANCH   8  33
BRANCH  31  38
ATOM     38  C   UNK d   0      10.847  -5.477   4.940  0.00  0.00     0.151 C 
BRANCH  38  39
ATOM     39  C   UNK d   0      11.430  -6.421   4.010  0.00  0.00     0.143 C 
ATOM     40  O   UNK d   0      11.265  -7.649   4.118  0.00  0.00    -0.650 OA
BRANCH  39  41
ATOM     41  O   UNK d   0      12.205  -5.951   2.951  0.00  0.00    -0.776 OA
ATOM     42  H   UNK d   0      13.176  -6.277   2.909  0.00  0.00     0.167 HD
ENDBRANCH  39  41
ENDBRANCH  38  39
ENDBRANCH  31  38
BRANCH  27  43
ATOM     43  C   UNK d   0      13.151  -3.455   5.279  0.00  0.00     0.052 C 
BRANCH  43  44
ATOM     44  C   UNK d   0      12.526  -2.101   5.379  0.00  0.00     0.115 C 
BRANCH  44  45
ATOM     45  C   UNK d   0      13.579  -1.119   5.012  0.00  0.00     0.139 C 
ATOM     46  O   UNK d   0      14.603  -1.051   5.736  0.00  0.00    -0.650 OA
BRANCH  45  47
ATOM     47  O   UNK d   0      13.480  -0.292   3.914  0.00  0.00    -0.776 OA
ATOM     48  H   UNK d   0      12.878  -0.507   3.103  0.00  0.00     0.167 HD
ENDBRANCH  45  47
ENDBRANCH  44  45
ENDBRANCH  43  44
ENDBRANCH  27  43
BRANCH  24  49
ATOM     49  C   UNK d   0      16.402  -1.533   9.328  0.00  0.00     0.052 C 
BRANCH  49  50
ATOM     50  C   UNK d   0      16.028  -0.157   8.840  0.00  0.00     0.115 C 
BRANCH  50  51
ATOM     51  C   UNK d   0      16.991   0.533   7.992  0.00  0.00     0.139 C 
ATOM     52  O   UNK d   0      18.138   0.847   8.389  0.00  0.00    -0.650 OA
BRANCH  51  53
ATOM     53  O   UNK d   0      16.645   0.867   6.692  0.00  0.00    -0.776 OA
ATOM     54  H   UNK d   0      15.954   0.306   6.225  0.00  0.00     0.167 HD
ENDBRANCH  51  53
ENDBRANCH  50  51
ENDBRANCH  49  50
ENDBRANCH  24  49
BRANCH  21  55
ATOM     55  C   UNK d   0      15.421  -1.031  12.214  0.00  0.00     0.151 C 
BRANCH  55  56
ATOM     56  C   UNK d   0      16.411  -1.710  13.063  0.00  0.00     0.143 C 
ATOM     57  O   UNK d   0      16.711  -2.912  12.921  0.00  0.00    -0.650 OA
BRANCH  56  58
ATOM     58  O   UNK d   0      17.031  -0.963  14.063  0.00  0.00    -0.776 OA
ATOM     59  H   UNK d   0      16.997  -1.386  15.008  0.00  0.00     0.167 HD
ENDBRANCH  56  58
ENDBRANCH  55  56
ENDBRANCH  21  55
BRANCH  18  60
ATOM     60  C   UNK d   0      12.496  -4.488  15.096  0.00  0.00     0.151 C 
BRANCH  60  61
ATOM     61  C   UNK d   0      13.687  -5.333  14.921  0.00  0.00     0.143 C 
ATOM     62  O   UNK d   0      13.784  -6.538  15.157  0.00  0.00    -0.650 OA
BRANCH  61  63
ATOM     63  O   UNK d   0      14.833  -4.664  14.427  0.00  0.00    -0.776 OA
ATOM     64  H   UNK d   0      15.014  -3.704  14.661  0.00  0.00     0.167 HD
ENDBRANCH  61  63
ENDBRANCH  60  61
ENDBRANCH  18  60
BRANCH  14  65
ATOM     65  C   UNK d   0      10.146  -6.386  14.804  0.00  0.00     0.052 C 
BRANCH  65  66
ATOM     66  C   UNK d   0      10.214  -7.843  14.513  0.00  0.00     0.115 C 
BRANCH  66  67
ATOM     67  C   UNK d   0      11.050  -8.691  15.316  0.00  0.00     0.139 C 
ATOM     68  O   UNK d   0      11.339  -8.314  16.511  0.00  0.00    -0.650 OA
BRANCH  67  69
ATOM     69  O   UNK d   0      11.615  -9.916  14.961  0.00  0.00    -0.776 OA
ATOM     70  H   UNK d   0      12.605  -9.888  14.680  0.00  0.00     0.167 HD
ENDBRANCH  67  69
ENDBRANCH  66  67
ENDBRANCH  65  66
ENDBRANCH  14  65
ENDBRANCH   6   7
ENDBRANCH   5   6
ENDBRANCH   2   5
TORSDOF 28
ENDMDL
MODEL 7
REMARK VINA RESULT:      -9.0      2.481      8.482
REMARK  28 active torsions:
REMARK  status: ('A' for Active; 'I' for Inactive)
REMARK    1  A    between atoms: C_2  and  O_3 
REMARK    2  A    between atoms: C_2  and  C_4 
REMARK    3  A    between atoms: C_4  and  C_5 
REMARK    4  A    between atoms: C_5  and  C_6 
REMARK    5  A    between atoms: C_7  and  C_8 
REMARK    6  A    between atoms: C_8  and  C_9 
REMARK    7  A    between atoms: C_9  and  O_11 
REMARK    8  A    between atoms: C_28  and  C_29 
REMARK    9  A    between atoms: C_29  and  C_30 
REMARK   10  A    between atoms: C_30  and  O_32 
REMARK   11  A    between atoms: C_33  and  C_34 
REMARK   12  A    between atoms: C_34  and  C_35 
REMARK   13  A    between atoms: C_35  and  C_36 
REMARK   14  A    between atoms: C_36  and  O_38 
REMARK   15  A    between atoms: C_39  and  C_40 
REMARK   16  A    between atoms: C_40  and  C_41 
REMARK   17  A    between atoms: C_41  and  C_42 
REMARK   18  A    between atoms: C_42  and  O_44 
REMARK   19  A    between atoms: C_45  and  C_46 
REMARK   20  A    between atoms: C_46  and  C_47 
REMARK   21  A    between atoms: C_47  and  O_49 
REMARK   22  A    between atoms: C_50  and  C_51 
REMARK   23  A    between atoms: C_51  and  C_52 
REMARK   24  A    between atoms: C_52  and  O_54 
REMARK   25  A    between atoms: C_55  and  C_56 
REMARK   26  A    between atoms: C_56  and  C_57 
REMARK   27  A    between atoms: C_57  and  C_58 
REMARK   28  A    between atoms: C_58  and  O_60 
ROOT
ATOM      1  O   UNK d   0       3.314  -7.894  10.938  0.00  0.00    -0.650 OA
ATOM      2  C   UNK d   0       4.445  -8.400  10.764  0.00  0.00     0.139 C 
ENDROOT
BRANCH   2   3
ATOM      3  O   UNK d   0       4.545  -9.736  10.456  0.00  0.00    -0.776 OA
ATOM      4  H   UNK d   0       4.240 -10.093   9.548  0.00  0.00     0.167 HD
ENDBRANCH   2   3
BRANCH   2   5
ATOM      5  C   UNK d   0       5.668  -7.559  10.890  0.00  0.00     0.115 C 
BRANCH   5   6
ATOM      6  C   UNK d   0       6.889  -8.433  10.991  0.00  0.00     0.052 C 
BRANCH   6   7
ATOM      7  C   UNK d   0       8.053  -7.900  10.190  0.00  0.00    -0.020 A 
ATOM      8  C   UNK d   0       8.382  -8.204   8.961  0.00  0.00    -0.011 A 
ATOM      9  C   UNK d   0       9.578  -7.450   8.621  0.00  0.00     0.067 A 
ATOM     10  C   UNK d   0      10.398  -7.309   7.491  0.00  0.00     0.062 C 
ATOM     11  N   UNK d   0       9.910  -6.717   9.704  0.00  0.00    -0.248 NA
ATOM     12  C   UNK d   0      11.355  -6.315   7.258  0.00  0.00     0.041 A 
ATOM     13  N   UNK d   0      12.282  -5.770   8.068  0.00  0.00    -0.355 N 
ATOM     14  C   UNK d   0      11.389  -5.684   6.001  0.00  0.00    -0.022 A 
ATOM     15  C   UNK d   0      12.898  -4.804   7.360  0.00  0.00     0.042 A 
ATOM     16  H   UNK d   0      12.510  -6.074   9.113  0.00  0.00     0.166 HD
ATOM     17  C   UNK d   0      13.941  -3.928   7.724  0.00  0.00     0.062 C 
ATOM     18  C   UNK d   0      12.365  -4.721   6.059  0.00  0.00    -0.013 A 
ATOM     19  C   UNK d   0      14.096  -3.206   8.879  0.00  0.00     0.067 A 
ATOM     20  N   UNK d   0      13.273  -3.496   9.890  0.00  0.00    -0.248 NA
ATOM     21  C   UNK d   0      14.962  -2.128   9.329  0.00  0.00    -0.011 A 
ATOM     22  C   UNK d   0      13.536  -2.686  10.967  0.00  0.00     0.066 A 
ATOM     23  C   UNK d   0      12.775  -2.907  12.105  0.00  0.00     0.062 C 
ATOM     24  C   UNK d   0      14.626  -1.826  10.550  0.00  0.00    -0.020 A 
ATOM     25  C   UNK d   0      11.827  -3.919  12.323  0.00  0.00     0.041 A 
ATOM     26  N   UNK d   0      10.896  -4.451  11.523  0.00  0.00    -0.355 N 
ATOM     27  C   UNK d   0      11.797  -4.554  13.584  0.00  0.00    -0.022 A 
ATOM     28  C   UNK d   0      10.274  -5.408  12.230  0.00  0.00     0.042 A 
ATOM     29  H   UNK d   0      10.661  -4.136  10.476  0.00  0.00     0.166 HD
ATOM     30  C   UNK d   0       9.230  -6.280  11.883  0.00  0.00     0.062 C 
ATOM     31  C   UNK d   0      10.817  -5.498  13.533  0.00  0.00    -0.013 A 
ATOM     32  C   UNK d   0       9.032  -6.942  10.682  0.00  0.00     0.066 A 
BRANCH   8  33
ATOM     33  C   UNK d   0       7.685  -9.144   8.065  0.00  0.00     0.151 C 
BRANCH  33  34
ATOM     34  C   UNK d   0       7.739 -10.537   8.545  0.00  0.00     0.143 C 
ATOM     35  O   UNK d   0       6.721 -11.106   8.963  0.00  0.00    -0.650 OA
BRANCH  34  36
ATOM     36  O   UNK d   0       8.938 -11.211   8.528  0.00  0.00    -0.776 OA
ATOM     37  H   UNK d   0       8.985 -12.223   8.706  0.00  0.00     0.167 HD
ENDBRANCH  34  36
ENDBRANCH  33  34
ENDBRANCH   8  33
BRANCH  31  38
ATOM     38  C   UNK d   0      10.428  -6.440  14.649  0.00  0.00     0.151 C 
BRANCH  38  39
ATOM     39  C   UNK d   0      11.306  -7.586  14.749  0.00  0.00     0.143 C 
ATOM     40  O   UNK d   0      11.999  -7.808  15.758  0.00  0.00    -0.650 OA
BRANCH  39  41
ATOM     41  O   UNK d   0      11.388  -8.482  13.684  0.00  0.00    -0.776 OA
ATOM     42  H   UNK d   0      10.545  -8.598  13.112  0.00  0.00     0.167 HD
ENDBRANCH  39  41
ENDBRANCH  38  39
ENDBRANCH  31  38
BRANCH  27  43
ATOM     43  C   UNK d   0      12.644  -4.300  14.806  0.00  0.00     0.052 C 
BRANCH  43  44
ATOM     44  C   UNK d   0      11.910  -3.588  15.896  0.00  0.00     0.115 C 
BRANCH  44  45
ATOM     45  C   UNK d   0      11.908  -2.147  15.534  0.00  0.00     0.139 C 
ATOM     46  O   UNK d   0      10.808  -1.541  15.524  0.00  0.00    -0.650 OA
BRANCH  45  47
ATOM     47  O   UNK d   0      13.056  -1.454  15.217  0.00  0.00    -0.776 OA
ATOM     48  H   UNK d   0      13.815  -1.859  14.646  0.00  0.00     0.167 HD
ENDBRANCH  45  47
ENDBRANCH  44  45
ENDBRANCH  43  44
ENDBRANCH  27  43
BRANCH  24  49
ATOM     49  C   UNK d   0      15.271  -0.812  11.402  0.00  0.00     0.052 C 
BRANCH  49  50
ATOM     50  C   UNK d   0      16.434  -1.417  12.147  0.00  0.00     0.115 C 
BRANCH  50  51
ATOM     51  C   UNK d   0      16.311  -1.527  13.594  0.00  0.00     0.139 C 
ATOM     52  O   UNK d   0      15.714  -2.479  14.152  0.00  0.00    -0.650 OA
BRANCH  51  53
ATOM     53  O   UNK d   0      16.866  -0.551  14.407  0.00  0.00    -0.776 OA
ATOM     54  H   UNK d   0      17.053  -0.782  15.367  0.00  0.00     0.167 HD
ENDBRANCH  51  53
ENDBRANCH  50  51
ENDBRANCH  49  50
ENDBRANCH  24  49
BRANCH  21  55
ATOM     55  C   UNK d   0      16.036  -1.516   8.493  0.00  0.00     0.151 C 
BRANCH  55  56
ATOM     56  C   UNK d   0      17.366  -2.047   8.830  0.00  0.00     0.143 C 
ATOM     57  O   UNK d   0      17.547  -3.216   9.225  0.00  0.00    -0.650 OA
BRANCH  56  58
ATOM     58  O   UNK d   0      18.459  -1.192   8.696  0.00  0.00    -0.776 OA
ATOM     59  H   UNK d   0      18.604  -0.816   7.741  0.00  0.00     0.167 HD
ENDBRANCH  56  58
ENDBRANCH  55  56
ENDBRANCH  21  55
BRANCH  18  60
ATOM     60  C   UNK d   0      12.735  -3.795   4.927  0.00  0.00     0.151 C 
BRANCH  60  61
ATOM     61  C   UNK d   0      11.633  -2.828   4.819  0.00  0.00     0.143 C 
ATOM     62  O   UNK d   0      10.921  -2.620   3.835  0.00  0.00    -0.650 OA
BRANCH  61  63
ATOM     63  O   UNK d   0      11.383  -2.067   5.986  0.00  0.00    -0.776 OA
ATOM     64  H   UNK d   0      11.934  -1.256   6.204  0.00  0.00     0.167 HD
ENDBRANCH  61  63
ENDBRANCH  60  61
ENDBRANCH  18  60
BRANCH  14  65
ATOM     65  C   UNK d   0      10.645  -5.986   4.731  0.00  0.00     0.052 C 
BRANCH  65  66
ATOM     66  C   UNK d   0      11.194  -7.161   4.001  0.00  0.00     0.115 C 
BRANCH  66  67
ATOM     67  C   UNK d   0      12.162  -6.962   2.960  0.00  0.00     0.139 C 
ATOM     68  O   UNK d   0      11.760  -6.973   1.738  0.00  0.00    -0.650 OA
BRANCH  67  69
ATOM     69  O   UNK d   0      13.533  -6.750   3.098  0.00  0.00    -0.776 OA
ATOM     70  H   UNK d   0      13.979  -7.217   3.901  0.00  0.00     0.167 HD
ENDBRANCH  67  69
ENDBRANCH  66  67
ENDBRANCH  65  66
ENDBRANCH  14  65
ENDBRANCH   6   7
ENDBRANCH   5   6
ENDBRANCH   2   5
TORSDOF 28
ENDMDL
MODEL 8
REMARK VINA RESULT:      -8.9      2.513      8.051
REMARK  28 active torsions:
REMARK  status: ('A' for Active; 'I' for Inactive)
REMARK    1  A    between atoms: C_2  and  O_3 
REMARK    2  A    between atoms: C_2  and  C_4 
REMARK    3  A    between atoms: C_4  and  C_5 
REMARK    4  A    between atoms: C_5  and  C_6 
REMARK    5  A    between atoms: C_7  and  C_8 
REMARK    6  A    between atoms: C_8  and  C_9 
REMARK    7  A    between atoms: C_9  and  O_11 
REMARK    8  A    between atoms: C_28  and  C_29 
REMARK    9  A    between atoms: C_29  and  C_30 
REMARK   10  A    between atoms: C_30  and  O_32 
REMARK   11  A    between atoms: C_33  and  C_34 
REMARK   12  A    between atoms: C_34  and  C_35 
REMARK   13  A    between atoms: C_35  and  C_36 
REMARK   14  A    between atoms: C_36  and  O_38 
REMARK   15  A    between atoms: C_39  and  C_40 
REMARK   16  A    between atoms: C_40  and  C_41 
REMARK   17  A    between atoms: C_41  and  C_42 
REMARK   18  A    between atoms: C_42  and  O_44 
REMARK   19  A    between atoms: C_45  and  C_46 
REMARK   20  A    between atoms: C_46  and  C_47 
REMARK   21  A    between atoms: C_47  and  O_49 
REMARK   22  A    between atoms: C_50  and  C_51 
REMARK   23  A    between atoms: C_51  and  C_52 
REMARK   24  A    between atoms: C_52  and  O_54 
REMARK   25  A    between atoms: C_55  and  C_56 
REMARK   26  A    between atoms: C_56  and  C_57 
REMARK   27  A    between atoms: C_57  and  C_58 
REMARK   28  A    between atoms: C_58  and  O_60 
ROOT
ATOM      1  O   UNK d   0      10.780   0.240  17.390  0.00  0.00    -0.650 OA
ATOM      2  C   UNK d   0      11.286  -0.865  17.092  0.00  0.00     0.139 C 
ENDROOT
BRANCH   2   3
ATOM      3  O   UNK d   0      12.492  -0.898  16.436  0.00  0.00    -0.776 OA
ATOM      4  H   UNK d   0      12.649  -1.534  15.651  0.00  0.00     0.167 HD
ENDBRANCH   2   3
BRANCH   2   5
ATOM      5  C   UNK d   0      10.582  -2.130  17.446  0.00  0.00     0.115 C 
BRANCH   5   6
ATOM      6  C   UNK d   0      11.484  -3.310  17.201  0.00  0.00     0.052 C 
BRANCH   6   7
ATOM      7  C   UNK d   0      11.077  -4.109  15.986  0.00  0.00    -0.020 A 
ATOM      8  C   UNK d   0      10.180  -5.058  15.918  0.00  0.00    -0.011 A 
ATOM      9  C   UNK d   0      10.142  -5.539  14.547  0.00  0.00     0.067 A 
ATOM     10  C   UNK d   0       9.409  -6.497  13.830  0.00  0.00     0.062 C 
ATOM     11  N   UNK d   0      11.054  -4.829  13.849  0.00  0.00    -0.248 NA
ATOM     12  C   UNK d   0       9.317  -6.627  12.440  0.00  0.00     0.041 A 
ATOM     13  N   UNK d   0      10.256  -6.544  11.478  0.00  0.00    -0.355 N 
ATOM     14  C   UNK d   0       8.053  -6.827  11.857  0.00  0.00    -0.022 A 
ATOM     15  C   UNK d   0       9.619  -6.679  10.299  0.00  0.00     0.042 A 
ATOM     16  H   UNK d   0      11.350  -6.413  11.630  0.00  0.00     0.166 HD
ATOM     17  C   UNK d   0      10.122  -6.672   8.983  0.00  0.00     0.062 C 
ATOM     18  C   UNK d   0       8.236  -6.858  10.496  0.00  0.00    -0.013 A 
ATOM     19  C   UNK d   0      11.034  -5.820   8.413  0.00  0.00     0.067 A 
ATOM     20  N   UNK d   0      11.696  -5.004   9.237  0.00  0.00    -0.248 NA
ATOM     21  C   UNK d   0      11.496  -5.535   7.065  0.00  0.00    -0.011 A 
ATOM     22  C   UNK d   0      12.557  -4.205   8.526  0.00  0.00     0.066 A 
ATOM     23  C   UNK d   0      13.340  -3.330   9.265  0.00  0.00     0.062 C 
ATOM     24  C   UNK d   0      12.384  -4.586   7.138  0.00  0.00    -0.020 A 
ATOM     25  C   UNK d   0      13.426  -3.224  10.662  0.00  0.00     0.041 A 
ATOM     26  N   UNK d   0      12.491  -3.291  11.617  0.00  0.00    -0.355 N 
ATOM     27  C   UNK d   0      14.696  -3.027  11.247  0.00  0.00    -0.022 A 
ATOM     28  C   UNK d   0      13.122  -3.148  12.793  0.00  0.00     0.042 A 
ATOM     29  H   UNK d   0      11.390  -3.412  11.462  0.00  0.00     0.166 HD
ATOM     30  C   UNK d   0      12.634  -3.144  14.109  0.00  0.00     0.062 C 
ATOM     31  C   UNK d   0      14.513  -2.979  12.594  0.00  0.00    -0.013 A 
ATOM     32  C   UNK d   0      11.650  -3.952  14.657  0.00  0.00     0.066 A 
BRANCH   8  33
ATOM     33  C   UNK d   0       9.348  -5.570  17.024  0.00  0.00     0.151 C 
BRANCH  33  34
ATOM     34  C   UNK d   0       9.502  -7.021  17.229  0.00  0.00     0.143 C 
ATOM     35  O   UNK d   0      10.613  -7.515  17.471  0.00  0.00    -0.650 OA
BRANCH  34  36
ATOM     36  O   UNK d   0       8.397  -7.836  17.149  0.00  0.00    -0.776 OA
ATOM     37  H   UNK d   0       7.904  -7.982  16.258  0.00  0.00     0.167 HD
ENDBRANCH  34  36
ENDBRANCH  33  34
ENDBRANCH   8  33
BRANCH  31  38
ATOM     38  C   UNK d   0      15.594  -2.796  13.635  0.00  0.00     0.151 C 
BRANCH  38  39
ATOM     39  C   UNK d   0      15.790  -1.410  14.004  0.00  0.00     0.143 C 
ATOM     40  O   UNK d   0      14.844  -0.663  14.308  0.00  0.00    -0.650 OA
BRANCH  39  41
ATOM     41  O   UNK d   0      17.080  -0.881  14.024  0.00  0.00    -0.776 OA
ATOM     42  H   UNK d   0      17.256  -0.121  14.688  0.00  0.00     0.167 HD
ENDBRANCH  39  41
ENDBRANCH  38  39
ENDBRANCH  31  38
BRANCH  27  43
ATOM     43  C   UNK d   0      16.044  -2.885  10.585  0.00  0.00     0.052 C 
BRANCH  43  44
ATOM     44  C   UNK d   0      16.400  -1.469  10.267  0.00  0.00     0.115 C 
BRANCH  44  45
ATOM     45  C   UNK d   0      17.492  -1.522   9.260  0.00  0.00     0.139 C 
ATOM     46  O   UNK d   0      17.433  -2.405   8.369  0.00  0.00    -0.650 OA
BRANCH  45  47
ATOM     47  O   UNK d   0      18.553  -0.643   9.262  0.00  0.00    -0.776 OA
ATOM     48  H   UNK d   0      18.471   0.334   9.586  0.00  0.00     0.167 HD
ENDBRANCH  45  47
ENDBRANCH  44  45
ENDBRANCH  43  44
ENDBRANCH  27  43
BRANCH  24  49
ATOM     49  C   UNK d   0      13.139  -4.015   6.009  0.00  0.00     0.052 C 
BRANCH  49  50
ATOM     50  C   UNK d   0      12.299  -3.001   5.275  0.00  0.00     0.115 C 
BRANCH  50  51
ATOM     51  C   UNK d   0      12.108  -1.707   5.917  0.00  0.00     0.139 C 
ATOM     52  O   UNK d   0      13.049  -1.067   6.443  0.00  0.00    -0.650 OA
BRANCH  51  53
ATOM     53  O   UNK d   0      10.841  -1.144   5.962  0.00  0.00    -0.776 OA
ATOM     54  H   UNK d   0      10.672  -0.408   6.624  0.00  0.00     0.167 HD
ENDBRANCH  51  53
ENDBRANCH  50  51
ENDBRANCH  49  50
ENDBRANCH  24  49
BRANCH  21  55
ATOM     55  C   UNK d   0      11.005  -6.243   5.847  0.00  0.00     0.151 C 
BRANCH  55  56
ATOM     56  C   UNK d   0      11.836  -7.411   5.516  0.00  0.00     0.143 C 
ATOM     57  O   UNK d   0      12.197  -7.675   4.352  0.00  0.00    -0.650 OA
BRANCH  56  58
ATOM     58  O   UNK d   0      12.227  -8.247   6.561  0.00  0.00    -0.776 OA
ATOM     59  H   UNK d   0      13.058  -7.926   7.089  0.00  0.00     0.167 HD
ENDBRANCH  56  58
ENDBRANCH  55  56
ENDBRANCH  21  55
BRANCH  18  60
ATOM     60  C   UNK d   0       7.137  -7.046   9.480  0.00  0.00     0.151 C 
BRANCH  60  61
ATOM     61  C   UNK d   0       7.290  -8.416   8.968  0.00  0.00     0.143 C 
ATOM     62  O   UNK d   0       7.065  -9.464   9.575  0.00  0.00    -0.650 OA
BRANCH  61  63
ATOM     63  O   UNK d   0       7.745  -8.513   7.631  0.00  0.00    -0.776 OA
ATOM     64  H   UNK d   0       7.511  -9.305   7.060  0.00  0.00     0.167 HD
ENDBRANCH  61  63
ENDBRANCH  60  61
ENDBRANCH  18  60
BRANCH  14  65
ATOM     65  C   UNK d   0       6.713  -7.087  12.485  0.00  0.00     0.052 C 
BRANCH  65  66
ATOM     66  C   UNK d   0       6.466  -8.530  12.751  0.00  0.00     0.115 C 
BRANCH  66  67
ATOM     67  C   UNK d   0       7.069  -9.157  13.893  0.00  0.00     0.139 C 
ATOM     68  O   UNK d   0       6.638  -8.845  15.063  0.00  0.00    -0.650 OA
BRANCH  67  69
ATOM     69  O   UNK d   0       8.101 -10.095  13.906  0.00  0.00    -0.776 OA
ATOM     70  H   UNK d   0       8.289 -10.541  14.815  0.00  0.00     0.167 HD
ENDBRANCH  67  69
ENDBRANCH  66  67
ENDBRANCH  65  66
ENDBRANCH  14  65
ENDBRANCH   6   7
ENDBRANCH   5   6
ENDBRANCH   2   5
TORSDOF 28
ENDMDL
MODEL 9
REMARK VINA RESULT:      -8.9      1.982     10.120
REMARK  28 active torsions:
REMARK  status: ('A' for Active; 'I' for Inactive)
REMARK    1  A    between atoms: C_2  and  O_3 
REMARK    2  A    between atoms: C_2  and  C_4 
REMARK    3  A    between atoms: C_4  and  C_5 
REMARK    4  A    between atoms: C_5  and  C_6 
REMARK    5  A    between atoms: C_7  and  C_8 
REMARK    6  A    between atoms: C_8  and  C_9 
REMARK    7  A    between atoms: C_9  and  O_11 
REMARK    8  A    between atoms: C_28  and  C_29 
REMARK    9  A    between atoms: C_29  and  C_30 
REMARK   10  A    between atoms: C_30  and  O_32 
REMARK   11  A    between atoms: C_33  and  C_34 
REMARK   12  A    between atoms: C_34  and  C_35 
REMARK   13  A    between atoms: C_35  and  C_36 
REMARK   14  A    between atoms: C_36  and  O_38 
REMARK   15  A    between atoms: C_39  and  C_40 
REMARK   16  A    between atoms: C_40  and  C_41 
REMARK   17  A    between atoms: C_41  and  C_42 
REMARK   18  A    between atoms: C_42  and  O_44 
REMARK   19  A    between atoms: C_45  and  C_46 
REMARK   20  A    between atoms: C_46  and  C_47 
REMARK   21  A    between atoms: C_47  and  O_49 
REMARK   22  A    between atoms: C_50  and  C_51 
REMARK   23  A    between atoms: C_51  and  C_52 
REMARK   24  A    between atoms: C_52  and  O_54 
REMARK   25  A    between atoms: C_55  and  C_56 
REMARK   26  A    between atoms: C_56  and  C_57 
REMARK   27  A    between atoms: C_57  and  C_58 
REMARK   28  A    between atoms: C_58  and  O_60 
ROOT
ATOM      1  O   UNK d   0      18.157   0.791   8.390  0.00  0.00    -0.650 OA
ATOM      2  C   UNK d   0      17.023   0.444   7.991  0.00  0.00     0.139 C 
ENDROOT
BRANCH   2   3
ATOM      3  O   UNK d   0      16.615   0.799   6.729  0.00  0.00    -0.776 OA
ATOM      4  H   UNK d   0      17.047   1.583   6.235  0.00  0.00     0.167 HD
ENDBRANCH   2   3
BRANCH   2   5
ATOM      5  C   UNK d   0      16.127  -0.347   8.882  0.00  0.00     0.115 C 
BRANCH   5   6
ATOM      6  C   UNK d   0      16.325  -1.819   8.641  0.00  0.00     0.052 C 
BRANCH   6   7
ATOM      7  C   UNK d   0      15.039  -2.603   8.744  0.00  0.00    -0.020 A 
ATOM      8  C   UNK d   0      14.378  -3.184   7.776  0.00  0.00    -0.011 A 
ATOM      9  C   UNK d   0      13.199  -3.808   8.353  0.00  0.00     0.067 A 
ATOM     10  C   UNK d   0      12.126  -4.579   7.879  0.00  0.00     0.062 C 
ATOM     11  N   UNK d   0      13.219  -3.552   9.678  0.00  0.00    -0.248 NA
ATOM     12  C   UNK d   0      11.224  -5.332   8.638  0.00  0.00     0.041 A 
ATOM     13  N   UNK d   0      10.585  -5.053   9.790  0.00  0.00    -0.355 N 
ATOM     14  C   UNK d   0      10.914  -6.641   8.225  0.00  0.00    -0.022 A 
ATOM     15  C   UNK d   0       9.885  -6.153  10.123  0.00  0.00     0.042 A 
ATOM     16  H   UNK d   0      10.614  -4.090  10.347  0.00  0.00     0.166 HD
ATOM     17  C   UNK d   0       9.045  -6.402  11.228  0.00  0.00     0.062 C 
ATOM     18  C   UNK d   0      10.066  -7.170   9.166  0.00  0.00    -0.013 A 
ATOM     19  C   UNK d   0       9.254  -6.111  12.552  0.00  0.00     0.067 A 
ATOM     20  N   UNK d   0      10.286  -5.315  12.841  0.00  0.00    -0.248 NA
ATOM     21  C   UNK d   0       8.623  -6.469  13.812  0.00  0.00    -0.011 A 
ATOM     22  C   UNK d   0      10.377  -5.127  14.199  0.00  0.00     0.066 A 
ATOM     23  C   UNK d   0      11.388  -4.285  14.638  0.00  0.00     0.062 C 
ATOM     24  C   UNK d   0       9.288  -5.893  14.772  0.00  0.00    -0.020 A 
ATOM     25  C   UNK d   0      12.277  -3.528  13.859  0.00  0.00     0.041 A 
ATOM     26  N   UNK d   0      12.923  -3.811  12.721  0.00  0.00    -0.355 N 
ATOM     27  C   UNK d   0      12.584  -2.213  14.271  0.00  0.00    -0.022 A 
ATOM     28  C   UNK d   0      13.629  -2.718  12.391  0.00  0.00     0.042 A 
ATOM     29  H   UNK d   0      12.901  -4.783  12.169  0.00  0.00     0.166 HD
ATOM     30  C   UNK d   0      14.475  -2.461  11.301  0.00  0.00     0.062 C 
ATOM     31  C   UNK d   0      13.438  -1.693  13.348  0.00  0.00    -0.013 A 
ATOM     32  C   UNK d   0      14.300  -2.831   9.977  0.00  0.00     0.066 A 
BRANCH   8  33
ATOM     33  C   UNK d   0      14.742  -3.210   6.347  0.00  0.00     0.151 C 
BRANCH  33  34
ATOM     34  C   UNK d   0      14.026  -2.191   5.558  0.00  0.00     0.143 C 
ATOM     35  O   UNK d   0      14.449  -1.028   5.487  0.00  0.00    -0.650 OA
BRANCH  34  36
ATOM     36  O   UNK d   0      12.873  -2.538   4.893  0.00  0.00    -0.776 OA
ATOM     37  H   UNK d   0      12.837  -3.368   4.285  0.00  0.00     0.167 HD
ENDBRANCH  34  36
ENDBRANCH  33  34
ENDBRANCH   8  33
BRANCH  31  38
ATOM     38  C   UNK d   0      14.029  -0.303  13.364  0.00  0.00     0.151 C 
BRANCH  38  39
ATOM     39  C   UNK d   0      13.476   0.554  12.336  0.00  0.00     0.143 C 
ATOM     40  O   UNK d   0      14.146   1.440  11.778  0.00  0.00    -0.650 OA
BRANCH  39  41
ATOM     41  O   UNK d   0      12.147   0.390  11.948  0.00  0.00    -0.776 OA
ATOM     42  H   UNK d   0      11.982  -0.085  11.055  0.00  0.00     0.167 HD
ENDBRANCH  39  41
ENDBRANCH  38  39
ENDBRANCH  31  38
BRANCH  27  43
ATOM     43  C   UNK d   0      12.107  -1.453  15.483  0.00  0.00     0.052 C 
BRANCH  43  44
ATOM     44  C   UNK d   0      10.709  -0.941  15.348  0.00  0.00     0.115 C 
BRANCH  44  45
ATOM     45  C   UNK d   0      10.783   0.536  15.486  0.00  0.00     0.139 C 
ATOM     46  O   UNK d   0      10.847   1.226  14.438  0.00  0.00    -0.650 OA
BRANCH  45  47
ATOM     47  O   UNK d   0      10.779   1.174  16.708  0.00  0.00    -0.776 OA
ATOM     48  H   UNK d   0       9.915   1.520  17.156  0.00  0.00     0.167 HD
ENDBRANCH  45  47
ENDBRANCH  44  45
ENDBRANCH  43  44
ENDBRANCH  27  43
BRANCH  24  49
ATOM     49  C   UNK d   0       8.969  -5.957  16.208  0.00  0.00     0.052 C 
BRANCH  49  50
ATOM     50  C   UNK d   0       8.318  -4.674  16.658  0.00  0.00     0.115 C 
BRANCH  50  51
ATOM     51  C   UNK d   0       8.834  -4.057  17.872  0.00  0.00     0.139 C 
ATOM     52  O   UNK d   0       8.332  -4.263  19.002  0.00  0.00    -0.650 OA
BRANCH  51  53
ATOM     53  O   UNK d   0       9.923  -3.201  17.798  0.00  0.00    -0.776 OA
ATOM     54  H   UNK d   0       9.818  -2.266  18.151  0.00  0.00     0.167 HD
ENDBRANCH  51  53
ENDBRANCH  50  51
ENDBRANCH  49  50
ENDBRANCH  24  49
BRANCH  21  55
ATOM     55  C   UNK d   0       7.420  -7.345  13.924  0.00  0.00     0.151 C 
BRANCH  55  56
ATOM     56  C   UNK d   0       7.657  -8.683  13.361  0.00  0.00     0.143 C 
ATOM     57  O   UNK d   0       7.020  -9.127  12.385  0.00  0.00    -0.650 OA
BRANCH  56  58
ATOM     58  O   UNK d   0       8.640  -9.473  13.955  0.00  0.00    -0.776 OA
ATOM     59  H   UNK d   0       9.414  -8.946  14.399  0.00  0.00     0.167 HD
ENDBRANCH  56  58
ENDBRANCH  55  56
ENDBRANCH  21  55
BRANCH  18  60
ATOM     60  C   UNK d   0       9.488  -8.563   9.123  0.00  0.00     0.151 C 
BRANCH  60  61
ATOM     61  C   UNK d   0       8.135  -8.422   8.564  0.00  0.00     0.143 C 
ATOM     62  O   UNK d   0       7.836  -8.231   7.385  0.00  0.00    -0.650 OA
BRANCH  61  63
ATOM     63  O   UNK d   0       7.081  -8.521   9.504  0.00  0.00    -0.776 OA
ATOM     64  H   UNK d   0       6.893  -7.776  10.151  0.00  0.00     0.167 HD
ENDBRANCH  61  63
ENDBRANCH  60  61
ENDBRANCH  18  60
BRANCH  14  65
ATOM     65  C   UNK d   0      11.276  -7.386   6.972  0.00  0.00     0.052 C 
BRANCH  65  66
ATOM     66  C   UNK d   0      10.569  -6.875   5.767  0.00  0.00     0.115 C 
BRANCH  66  67
ATOM     67  C   UNK d   0      11.323  -6.514   4.599  0.00  0.00     0.139 C 
ATOM     68  O   UNK d   0      11.099  -7.150   3.504  0.00  0.00    -0.650 OA
BRANCH  67  69
ATOM     69  O   UNK d   0      12.303  -5.529   4.487  0.00  0.00    -0.776 OA
ATOM     70  H   UNK d   0      12.756  -5.450   3.565  0.00  0.00     0.167 HD
ENDBRANCH  67  69
ENDBRANCH  66  67
ENDBRANCH  65  66
ENDBRANCH  14  65
ENDBRANCH   6   7
ENDBRANCH   5   6
ENDBRANCH   2   5
TORSDOF 28
ENDMDL
MODEL 10
REMARK VINA RESULT:      -8.8     28.798     31.681
REMARK  28 active torsions:
REMARK  status: ('A' for Active; 'I' for Inactive)
REMARK    1  A    between atoms: C_2  and  O_3 
REMARK    2  A    between atoms: C_2  and  C_4 
REMARK    3  A    between atoms: C_4  and  C_5 
REMARK    4  A    between atoms: C_5  and  C_6 
REMARK    5  A    between atoms: C_7  and  C_8 
REMARK    6  A    between atoms: C_8  and  C_9 
REMARK    7  A    between atoms: C_9  and  O_11 
REMARK    8  A    between atoms: C_28  and  C_29 
REMARK    9  A    between atoms: C_29  and  C_30 
REMARK   10  A    between atoms: C_30  and  O_32 
REMARK   11  A    between atoms: C_33  and  C_34 
REMARK   12  A    between atoms: C_34  and  C_35 
REMARK   13  A    between atoms: C_35  and  C_36 
REMARK   14  A    between atoms: C_36  and  O_38 
REMARK   15  A    between atoms: C_39  and  C_40 
REMARK   16  A    between atoms: C_40  and  C_41 
REMARK   17  A    between atoms: C_41  and  C_42 
REMARK   18  A    between atoms: C_42  and  O_44 
REMARK   19  A    between atoms: C_45  and  C_46 
REMARK   20  A    between atoms: C_46  and  C_47 
REMARK   21  A    between atoms: C_47  and  O_49 
REMARK   22  A    between atoms: C_50  and  C_51 
REMARK   23  A    between atoms: C_51  and  C_52 
REMARK   24  A    between atoms: C_52  and  O_54 
REMARK   25  A    between atoms: C_55  and  C_56 
REMARK   26  A    between atoms: C_56  and  C_57 
REMARK   27  A    between atoms: C_57  and  C_58 
REMARK   28  A    between atoms: C_58  and  O_60 
ROOT
ATOM      1  O   UNK d   0     -17.345  -4.519  -3.619  0.00  0.00    -0.650 OA
ATOM      2  C   UNK d   0     -16.910  -3.588  -4.334  0.00  0.00     0.139 C 
ENDROOT
BRANCH   2   3
ATOM      3  O   UNK d   0     -17.338  -2.304  -4.100  0.00  0.00    -0.776 OA
ATOM      4  H   UNK d   0     -16.756  -1.501  -4.347  0.00  0.00     0.167 HD
ENDBRANCH   2   3
BRANCH   2   5
ATOM      5  C   UNK d   0     -15.937  -3.875  -5.426  0.00  0.00     0.115 C 
BRANCH   5   6
ATOM      6  C   UNK d   0     -16.331  -3.137  -6.676  0.00  0.00     0.052 C 
BRANCH   6   7
ATOM      7  C   UNK d   0     -15.203  -2.305  -7.240  0.00  0.00    -0.020 A 
ATOM      8  C   UNK d   0     -14.378  -2.627  -8.203  0.00  0.00    -0.011 A 
ATOM      9  C   UNK d   0     -13.460  -1.516  -8.391  0.00  0.00     0.067 A 
ATOM     10  C   UNK d   0     -12.386  -1.224  -9.248  0.00  0.00     0.062 C 
ATOM     11  N   UNK d   0     -13.794  -0.563  -7.496  0.00  0.00    -0.248 NA
ATOM     12  C   UNK d   0     -11.793   0.024  -9.467  0.00  0.00     0.041 A 
ATOM     13  N   UNK d   0     -11.449   1.005  -8.611  0.00  0.00    -0.355 N 
ATOM     14  C   UNK d   0     -11.524   0.427 -10.788  0.00  0.00    -0.022 A 
ATOM     15  C   UNK d   0     -10.976   2.022  -9.355  0.00  0.00     0.042 A 
ATOM     16  H   UNK d   0     -11.521   0.971  -7.501  0.00  0.00     0.166 HD
ATOM     17  C   UNK d   0     -10.481   3.284  -8.967  0.00  0.00     0.062 C 
ATOM     18  C   UNK d   0     -11.008   1.697 -10.724  0.00  0.00    -0.013 A 
ATOM     19  C   UNK d   0     -10.993   4.167  -8.052  0.00  0.00     0.067 A 
ATOM     20  N   UNK d   0     -11.977   3.722  -7.266  0.00  0.00    -0.248 NA
ATOM     21  C   UNK d   0     -10.750   5.553  -7.688  0.00  0.00    -0.011 A 
ATOM     22  C   UNK d   0     -12.396   4.716  -6.417  0.00  0.00     0.066 A 
ATOM     23  C   UNK d   0     -13.394   4.377  -5.515  0.00  0.00     0.062 C 
ATOM     24  C   UNK d   0     -11.577   5.870  -6.734  0.00  0.00    -0.020 A 
ATOM     25  C   UNK d   0     -13.968   3.114  -5.302  0.00  0.00     0.041 A 
ATOM     26  N   UNK d   0     -14.324   2.145  -6.154  0.00  0.00    -0.355 N 
ATOM     27  C   UNK d   0     -14.233   2.708  -3.976  0.00  0.00    -0.022 A 
ATOM     28  C   UNK d   0     -14.804   1.132  -5.415  0.00  0.00     0.042 A 
ATOM     29  H   UNK d   0     -14.261   2.185  -7.269  0.00  0.00     0.166 HD
ATOM     30  C   UNK d   0     -15.308  -0.124  -5.788  0.00  0.00     0.062 C 
ATOM     31  C   UNK d   0     -14.762   1.456  -4.038  0.00  0.00    -0.013 A 
ATOM     32  C   UNK d   0     -14.836  -0.976  -6.773  0.00  0.00     0.066 A 
BRANCH   8  33
ATOM     33  C   UNK d   0     -14.361  -3.886  -8.970  0.00  0.00     0.151 C 
BRANCH  33  34
ATOM     34  C   UNK d   0     -13.426  -4.880  -8.413  0.00  0.00     0.143 C 
ATOM     35  O   UNK d   0     -13.240  -4.966  -7.191  0.00  0.00    -0.650 OA
BRANCH  34  36
ATOM     36  O   UNK d   0     -12.749  -5.722  -9.265  0.00  0.00    -0.776 OA
ATOM     37  H   UNK d   0     -13.089  -6.674  -9.457  0.00  0.00     0.167 HD
ENDBRANCH  34  36
ENDBRANCH  33  34
ENDBRANCH   8  33
BRANCH  31  38
ATOM     38  C   UNK d   0     -15.190   0.609  -2.862  0.00  0.00     0.151 C 
BRANCH  38  39
ATOM     39  C   UNK d   0     -16.596   0.752  -2.550  0.00  0.00     0.143 C 
ATOM     40  O   UNK d   0     -17.480   0.705  -3.423  0.00  0.00    -0.650 OA
BRANCH  39  41
ATOM     41  O   UNK d   0     -16.988   0.949  -1.226  0.00  0.00    -0.776 OA
ATOM     42  H   UNK d   0     -16.826   0.172  -0.576  0.00  0.00     0.167 HD
ENDBRANCH  39  41
ENDBRANCH  38  39
ENDBRANCH  31  38
BRANCH  27  43
ATOM     43  C   UNK d   0     -14.010   3.453  -2.683  0.00  0.00     0.052 C 
BRANCH  43  44
ATOM     44  C   UNK d   0     -15.131   4.376  -2.332  0.00  0.00     0.115 C 
BRANCH  44  45
ATOM     45  C   UNK d   0     -15.363   4.226  -0.872  0.00  0.00     0.139 C 
ATOM     46  O   UNK d   0     -15.092   3.121  -0.340  0.00  0.00    -0.650 OA
BRANCH  45  47
ATOM     47  O   UNK d   0     -15.854   5.245  -0.085  0.00  0.00    -0.776 OA
ATOM     48  H   UNK d   0     -15.443   6.192  -0.073  0.00  0.00     0.167 HD
ENDBRANCH  45  47
ENDBRANCH  44  45
ENDBRANCH  43  44
ENDBRANCH  27  43
BRANCH  24  49
ATOM     49  C   UNK d   0     -11.649   7.168  -6.042  0.00  0.00     0.052 C 
BRANCH  49  50
ATOM     50  C   UNK d   0     -12.169   8.231  -6.974  0.00  0.00     0.115 C 
BRANCH  50  51
ATOM     51  C   UNK d   0     -13.462   7.992  -7.600  0.00  0.00     0.139 C 
ATOM     52  O   UNK d   0     -14.461   7.592  -6.957  0.00  0.00    -0.650 OA
BRANCH  51  53
ATOM     53  O   UNK d   0     -13.616   8.207  -8.961  0.00  0.00    -0.776 OA
ATOM     54  H   UNK d   0     -13.005   7.718  -9.592  0.00  0.00     0.167 HD
ENDBRANCH  51  53
ENDBRANCH  50  51
ENDBRANCH  49  50
ENDBRANCH  24  49
BRANCH  21  55
ATOM     55  C   UNK d   0      -9.714   6.415  -8.330  0.00  0.00     0.151 C 
BRANCH  55  56
ATOM     56  C   UNK d   0      -8.390   6.238  -7.713  0.00  0.00     0.143 C 
ATOM     57  O   UNK d   0      -8.017   6.889  -6.717  0.00  0.00    -0.650 OA
BRANCH  56  58
ATOM     58  O   UNK d   0      -7.531   5.297  -8.279  0.00  0.00    -0.776 OA
ATOM     59  H   UNK d   0      -7.904   4.815  -9.116  0.00  0.00     0.167 HD
ENDBRANCH  56  58
ENDBRANCH  55  56
ENDBRANCH  21  55
BRANCH  18  60
ATOM     60  C   UNK d   0     -10.586   2.519 -11.917  0.00  0.00     0.151 C 
BRANCH  60  61
ATOM     61  C   UNK d   0      -9.161   2.222 -12.128  0.00  0.00     0.143 C 
ATOM     62  O   UNK d   0      -8.226   2.496 -11.376  0.00  0.00    -0.650 OA
BRANCH  61  63
ATOM     63  O   UNK d   0      -8.859   1.546 -13.335  0.00  0.00    -0.776 OA
ATOM     64  H   UNK d   0      -7.912   1.464 -13.661  0.00  0.00     0.167 HD
ENDBRANCH  61  63
ENDBRANCH  60  61
ENDBRANCH  18  60
BRANCH  14  65
ATOM     65  C   UNK d   0     -11.625  -0.327 -12.083  0.00  0.00     0.052 C 
BRANCH  65  66
ATOM     66  C   UNK d   0     -12.688   0.198 -12.981  0.00  0.00     0.115 C 
BRANCH  66  67
ATOM     67  C   UNK d   0     -12.470   0.230 -14.400  0.00  0.00     0.139 C 
ATOM     68  O   UNK d   0     -11.329   0.632 -14.836  0.00  0.00    -0.650 OA
BRANCH  67  69
ATOM     69  O   UNK d   0     -13.364  -0.129 -15.408  0.00  0.00    -0.776 OA
ATOM     70  H   UNK d   0     -14.349  -0.223 -15.122  0.00  0.00     0.167 HD
ENDBRANCH  67  69
ENDBRANCH  66  67
ENDBRANCH  65  66
ENDBRANCH  14  65
ENDBRANCH   6   7
ENDBRANCH   5   6
ENDBRANCH   2   5
TORSDOF 28
ENDMDL
MODEL 11
REMARK VINA RESULT:      -8.8     30.015     34.693
REMARK  28 active torsions:
REMARK  status: ('A' for Active; 'I' for Inactive)
REMARK    1  A    between atoms: C_2  and  O_3 
REMARK    2  A    between atoms: C_2  and  C_4 
REMARK    3  A    between atoms: C_4  and  C_5 
REMARK    4  A    between atoms: C_5  and  C_6 
REMARK    5  A    between atoms: C_7  and  C_8 
REMARK    6  A    between atoms: C_8  and  C_9 
REMARK    7  A    between atoms: C_9  and  O_11 
REMARK    8  A    between atoms: C_28  and  C_29 
REMARK    9  A    between atoms: C_29  and  C_30 
REMARK   10  A    between atoms: C_30  and  O_32 
REMARK   11  A    between atoms: C_33  and  C_34 
REMARK   12  A    between atoms: C_34  and  C_35 
REMARK   13  A    between atoms: C_35  and  C_36 
REMARK   14  A    between atoms: C_36  and  O_38 
REMARK   15  A    between atoms: C_39  and  C_40 
REMARK   16  A    between atoms: C_40  and  C_41 
REMARK   17  A    between atoms: C_41  and  C_42 
REMARK   18  A    between atoms: C_42  and  O_44 
REMARK   19  A    between atoms: C_45  and  C_46 
REMARK   20  A    between atoms: C_46  and  C_47 
REMARK   21  A    between atoms: C_47  and  O_49 
REMARK   22  A    between atoms: C_50  and  C_51 
REMARK   23  A    between atoms: C_51  and  C_52 
REMARK   24  A    between atoms: C_52  and  O_54 
REMARK   25  A    between atoms: C_55  and  C_56 
REMARK   26  A    between atoms: C_56  and  C_57 
REMARK   27  A    between atoms: C_57  and  C_58 
REMARK   28  A    between atoms: C_58  and  O_60 
ROOT
ATOM      1  O   UNK d   0     -14.848  -1.789 -13.995  0.00  0.00    -0.650 OA
ATOM      2  C   UNK d   0     -13.623  -2.042 -13.977  0.00  0.00     0.139 C 
ENDROOT
BRANCH   2   3
ATOM      3  O   UNK d   0     -12.727  -1.021 -13.763  0.00  0.00    -0.776 OA
ATOM      4  H   UNK d   0     -12.396  -0.799 -12.823  0.00  0.00     0.167 HD
ENDBRANCH   2   3
BRANCH   2   5
ATOM      5  C   UNK d   0     -13.144  -3.437 -14.188  0.00  0.00     0.115 C 
BRANCH   5   6
ATOM      6  C   UNK d   0     -12.819  -4.078 -12.867  0.00  0.00     0.052 C 
BRANCH   6   7
ATOM      7  C   UNK d   0     -13.994  -4.085 -11.919  0.00  0.00    -0.020 A 
ATOM      8  C   UNK d   0     -15.073  -4.822 -11.990  0.00  0.00    -0.011 A 
ATOM      9  C   UNK d   0     -15.925  -4.474 -10.866  0.00  0.00     0.067 A 
ATOM     10  C   UNK d   0     -17.168  -4.896 -10.368  0.00  0.00     0.062 C 
ATOM     11  N   UNK d   0     -15.290  -3.511 -10.165  0.00  0.00    -0.248 NA
ATOM     12  C   UNK d   0     -17.707  -4.636  -9.104  0.00  0.00     0.041 A 
ATOM     13  N   UNK d   0     -17.731  -3.510  -8.365  0.00  0.00    -0.355 N 
ATOM     14  C   UNK d   0     -18.298  -5.691  -8.386  0.00  0.00    -0.022 A 
ATOM     15  C   UNK d   0     -18.315  -3.826  -7.194  0.00  0.00     0.042 A 
ATOM     16  H   UNK d   0     -17.361  -2.508  -8.673  0.00  0.00     0.166 HD
ATOM     17  C   UNK d   0     -18.593  -3.027  -6.067  0.00  0.00     0.062 C 
ATOM     18  C   UNK d   0     -18.684  -5.185  -7.169  0.00  0.00    -0.013 A 
ATOM     19  C   UNK d   0     -17.787  -2.112  -5.439  0.00  0.00     0.067 A 
ATOM     20  N   UNK d   0     -16.660  -1.767  -6.067  0.00  0.00    -0.248 NA
ATOM     21  C   UNK d   0     -17.821  -1.377  -4.185  0.00  0.00    -0.011 A 
ATOM     22  C   UNK d   0     -15.954  -0.861  -5.315  0.00  0.00     0.066 A 
ATOM     23  C   UNK d   0     -14.774  -0.386  -5.869  0.00  0.00     0.062 C 
ATOM     24  C   UNK d   0     -16.743  -0.650  -4.117  0.00  0.00    -0.020 A 
ATOM     25  C   UNK d   0     -14.257  -0.650  -7.147  0.00  0.00     0.041 A 
ATOM     26  N   UNK d   0     -14.219  -1.772  -7.875  0.00  0.00    -0.355 N 
ATOM     27  C   UNK d   0     -13.668   0.411  -7.869  0.00  0.00    -0.022 A 
ATOM     28  C   UNK d   0     -13.629  -1.462  -9.040  0.00  0.00     0.042 A 
ATOM     29  H   UNK d   0     -14.582  -2.781  -7.560  0.00  0.00     0.166 HD
ATOM     30  C   UNK d   0     -13.338  -2.248 -10.166  0.00  0.00     0.062 C 
ATOM     31  C   UNK d   0     -13.269  -0.094  -9.068  0.00  0.00    -0.013 A 
ATOM     32  C   UNK d   0     -14.122  -3.233 -10.746  0.00  0.00     0.066 A 
BRANCH   8  33
ATOM     33  C   UNK d   0     -15.390  -5.828 -13.021  0.00  0.00     0.151 C 
BRANCH  33  34
ATOM     34  C   UNK d   0     -14.704  -7.113 -12.794  0.00  0.00     0.143 C 
ATOM     35  O   UNK d   0     -14.952  -7.799 -11.792  0.00  0.00    -0.650 OA
BRANCH  34  36
ATOM     36  O   UNK d   0     -13.776  -7.554 -13.709  0.00  0.00    -0.776 OA
ATOM     37  H   UNK d   0     -14.040  -8.187 -14.475  0.00  0.00     0.167 HD
ENDBRANCH  34  36
ENDBRANCH  33  34
ENDBRANCH   8  33
BRANCH  31  38
ATOM     38  C   UNK d   0     -12.597   0.677 -10.180  0.00  0.00     0.151 C 
BRANCH  38  39
ATOM     39  C   UNK d   0     -13.531   1.145 -11.182  0.00  0.00     0.143 C 
ATOM     40  O   UNK d   0     -13.166   1.502 -12.316  0.00  0.00    -0.650 OA
BRANCH  39  41
ATOM     41  O   UNK d   0     -14.891   1.203 -10.879  0.00  0.00    -0.776 OA
ATOM     42  H   UNK d   0     -15.390   0.309 -10.825  0.00  0.00     0.167 HD
ENDBRANCH  39  41
ENDBRANCH  38  39
ENDBRANCH  31  38
BRANCH  27  43
ATOM     43  C   UNK d   0     -13.474   1.852  -7.467  0.00  0.00     0.052 C 
BRANCH  43  44
ATOM     44  C   UNK d   0     -14.691   2.693  -7.677  0.00  0.00     0.115 C 
BRANCH  44  45
ATOM     45  C   UNK d   0     -14.335   4.070  -7.249  0.00  0.00     0.139 C 
ATOM     46  O   UNK d   0     -15.137   4.685  -6.504  0.00  0.00    -0.650 OA
BRANCH  45  47
ATOM     47  O   UNK d   0     -13.165   4.692  -7.629  0.00  0.00    -0.776 OA
ATOM     48  H   UNK d   0     -13.085   5.259  -8.489  0.00  0.00     0.167 HD
ENDBRANCH  45  47
ENDBRANCH  44  45
ENDBRANCH  43  44
ENDBRANCH  27  43
BRANCH  24  49
ATOM     49  C   UNK d   0     -16.391   0.281  -3.031  0.00  0.00     0.052 C 
BRANCH  49  50
ATOM     50  C   UNK d   0     -15.401  -0.359  -2.092  0.00  0.00     0.115 C 
BRANCH  50  51
ATOM     51  C   UNK d   0     -13.991  -0.062  -2.309  0.00  0.00     0.139 C 
ATOM     52  O   UNK d   0     -13.567   1.101  -2.506  0.00  0.00    -0.650 OA
BRANCH  51  53
ATOM     53  O   UNK d   0     -13.064  -1.094  -2.306  0.00  0.00    -0.776 OA
ATOM     54  H   UNK d   0     -12.253  -1.001  -1.720  0.00  0.00     0.167 HD
ENDBRANCH  51  53
ENDBRANCH  50  51
ENDBRANCH  49  50
ENDBRANCH  24  49
BRANCH  21  55
ATOM     55  C   UNK d   0     -18.928  -1.475  -3.189  0.00  0.00     0.151 C 
BRANCH  55  56
ATOM     56  C   UNK d   0     -20.011  -0.521  -3.473  0.00  0.00     0.143 C 
ATOM     57  O   UNK d   0     -21.122  -0.873  -3.916  0.00  0.00    -0.650 OA
BRANCH  56  58
ATOM     58  O   UNK d   0     -19.766   0.830  -3.230  0.00  0.00    -0.776 OA
ATOM     59  H   UNK d   0     -18.785   1.059  -2.992  0.00  0.00     0.167 HD
ENDBRANCH  56  58
ENDBRANCH  55  56
ENDBRANCH  21  55
BRANCH  18  60
ATOM     60  C   UNK d   0     -19.357  -5.979  -6.077  0.00  0.00     0.151 C 
BRANCH  60  61
ATOM     61  C   UNK d   0     -18.274  -6.650  -5.340  0.00  0.00     0.143 C 
ATOM     62  O   UNK d   0     -17.207  -6.155  -4.977  0.00  0.00    -0.650 OA
BRANCH  61  63
ATOM     63  O   UNK d   0     -18.512  -8.010  -5.027  0.00  0.00    -0.776 OA
ATOM     64  H   UNK d   0     -18.227  -8.395  -4.144  0.00  0.00     0.167 HD
ENDBRANCH  61  63
ENDBRANCH  60  61
ENDBRANCH  18  60
BRANCH  14  65
ATOM     65  C   UNK d   0     -18.611  -7.102  -8.796  0.00  0.00     0.052 C 
BRANCH  65  66
ATOM     66  C   UNK d   0     -17.440  -8.014  -8.684  0.00  0.00     0.115 C 
BRANCH  66  67
ATOM     67  C   UNK d   0     -17.649  -9.413  -8.438  0.00  0.00     0.139 C 
ATOM     68  O   UNK d   0     -17.713  -9.818  -7.219  0.00  0.00    -0.650 OA
BRANCH  67  69
ATOM     69  O   UNK d   0     -17.796 -10.432  -9.378  0.00  0.00    -0.776 OA
ATOM     70  H   UNK d   0     -16.986 -10.593  -9.994  0.00  0.00     0.167 HD
ENDBRANCH  67  69
ENDBRANCH  66  67
ENDBRANCH  65  66
ENDBRANCH  14  65
ENDBRANCH   6   7
ENDBRANCH   5   6
ENDBRANCH   2   5
TORSDOF 28
ENDMDL
MODEL 12
REMARK VINA RESULT:      -8.8     29.680     33.711
REMARK  28 active torsions:
REMARK  status: ('A' for Active; 'I' for Inactive)
REMARK    1  A    between atoms: C_2  and  O_3 
REMARK    2  A    between atoms: C_2  and  C_4 
REMARK    3  A    between atoms: C_4  and  C_5 
REMARK    4  A    between atoms: C_5  and  C_6 
REMARK    5  A    between atoms: C_7  and  C_8 
REMARK    6  A    between atoms: C_8  and  C_9 
REMARK    7  A    between atoms: C_9  and  O_11 
REMARK    8  A    between atoms: C_28  and  C_29 
REMARK    9  A    between atoms: C_29  and  C_30 
REMARK   10  A    between atoms: C_30  and  O_32 
REMARK   11  A    between atoms: C_33  and  C_34 
REMARK   12  A    between atoms: C_34  and  C_35 
REMARK   13  A    between atoms: C_35  and  C_36 
REMARK   14  A    between atoms: C_36  and  O_38 
REMARK   15  A    between atoms: C_39  and  C_40 
REMARK   16  A    between atoms: C_40  and  C_41 
REMARK   17  A    between atoms: C_41  and  C_42 
REMARK   18  A    between atoms: C_42  and  O_44 
REMARK   19  A    between atoms: C_45  and  C_46 
REMARK   20  A    between atoms: C_46  and  C_47 
REMARK   21  A    between atoms: C_47  and  O_49 
REMARK   22  A    between atoms: C_50  and  C_51 
REMARK   23  A    between atoms: C_51  and  C_52 
REMARK   24  A    between atoms: C_52  and  O_54 
REMARK   25  A    between atoms: C_55  and  C_56 
REMARK   26  A    between atoms: C_56  and  C_57 
REMARK   27  A    between atoms: C_57  and  C_58 
REMARK   28  A    between atoms: C_58  and  O_60 
ROOT
ATOM      1  O   UNK d   0     -13.345  -7.011 -13.722  0.00  0.00    -0.650 OA
ATOM      2  C   UNK d   0     -14.393  -7.126 -13.049  0.00  0.00     0.139 C 
ENDROOT
BRANCH   2   3
ATOM      3  O   UNK d   0     -14.339  -7.728 -11.815  0.00  0.00    -0.776 OA
ATOM      4  H   UNK d   0     -13.543  -8.311 -11.547  0.00  0.00     0.167 HD
ENDBRANCH   2   3
BRANCH   2   5
ATOM      5  C   UNK d   0     -15.686  -6.616 -13.586  0.00  0.00     0.115 C 
BRANCH   5   6
ATOM      6  C   UNK d   0     -15.571  -5.150 -13.906  0.00  0.00     0.052 C 
BRANCH   6   7
ATOM      7  C   UNK d   0     -15.054  -4.340 -12.742  0.00  0.00    -0.020 A 
ATOM      8  C   UNK d   0     -13.982  -3.590 -12.705  0.00  0.00    -0.011 A 
ATOM      9  C   UNK d   0     -13.887  -3.015 -11.374  0.00  0.00     0.067 A 
ATOM     10  C   UNK d   0     -13.015  -2.138 -10.709  0.00  0.00     0.062 C 
ATOM     11  N   UNK d   0     -14.939  -3.473 -10.664  0.00  0.00    -0.248 NA
ATOM     12  C   UNK d   0     -13.242  -1.474  -9.499  0.00  0.00     0.041 A 
ATOM     13  N   UNK d   0     -13.782  -1.901  -8.342  0.00  0.00    -0.355 N 
ATOM     14  C   UNK d   0     -12.928  -0.106  -9.403  0.00  0.00    -0.022 A 
ATOM     15  C   UNK d   0     -13.827  -0.837  -7.517  0.00  0.00     0.042 A 
ATOM     16  H   UNK d   0     -14.108  -2.938  -8.105  0.00  0.00     0.166 HD
ATOM     17  C   UNK d   0     -14.295  -0.727  -6.193  0.00  0.00     0.062 C 
ATOM     18  C   UNK d   0     -13.301   0.306  -8.148  0.00  0.00    -0.013 A 
ATOM     19  C   UNK d   0     -15.448  -1.226  -5.641  0.00  0.00     0.067 A 
ATOM     20  N   UNK d   0     -16.142  -2.099  -6.376  0.00  0.00    -0.248 NA
ATOM     21  C   UNK d   0     -16.176  -1.041  -4.397  0.00  0.00    -0.011 A 
ATOM     22  C   UNK d   0     -17.271  -2.496  -5.704  0.00  0.00     0.066 A 
ATOM     23  C   UNK d   0     -18.069  -3.436  -6.340  0.00  0.00     0.062 C 
ATOM     24  C   UNK d   0     -17.244  -1.784  -4.442  0.00  0.00    -0.020 A 
ATOM     25  C   UNK d   0     -17.817  -4.100  -7.551  0.00  0.00     0.041 A 
ATOM     26  N   UNK d   0     -17.294  -3.672  -8.706  0.00  0.00    -0.355 N 
ATOM     27  C   UNK d   0     -18.128  -5.474  -7.644  0.00  0.00    -0.022 A 
ATOM     28  C   UNK d   0     -17.256  -4.729  -9.533  0.00  0.00     0.042 A 
ATOM     29  H   UNK d   0     -16.977  -2.627  -8.945  0.00  0.00     0.166 HD
ATOM     30  C   UNK d   0     -16.802  -4.850 -10.855  0.00  0.00     0.062 C 
ATOM     31  C   UNK d   0     -17.776  -5.880  -8.895  0.00  0.00    -0.013 A 
ATOM     32  C   UNK d   0     -15.680  -4.274 -11.430  0.00  0.00     0.066 A 
BRANCH   8  33
ATOM     33  C   UNK d   0     -13.024  -3.361 -13.803  0.00  0.00     0.151 C 
BRANCH  33  34
ATOM     34  C   UNK d   0     -13.488  -2.340 -14.760  0.00  0.00     0.143 C 
ATOM     35  O   UNK d   0     -14.559  -1.742 -14.584  0.00  0.00    -0.650 OA
BRANCH  34  36
ATOM     36  O   UNK d   0     -12.719  -2.050 -15.863  0.00  0.00    -0.776 OA
ATOM     37  H   UNK d   0     -12.620  -1.085 -16.207  0.00  0.00     0.167 HD
ENDBRANCH  34  36
ENDBRANCH  33  34
ENDBRANCH   8  33
BRANCH  31  38
ATOM     38  C   UNK d   0     -17.911  -7.279  -9.448  0.00  0.00     0.151 C 
BRANCH  38  39
ATOM     39  C   UNK d   0     -16.771  -8.117  -9.140  0.00  0.00     0.143 C 
ATOM     40  O   UNK d   0     -15.600  -7.710  -9.236  0.00  0.00    -0.650 OA
BRANCH  39  41
ATOM     41  O   UNK d   0     -16.979  -9.431  -8.719  0.00  0.00    -0.776 OA
ATOM     42  H   UNK d   0     -17.849  -9.880  -9.021  0.00  0.00     0.167 HD
ENDBRANCH  39  41
ENDBRANCH  38  39
ENDBRANCH  31  38
BRANCH  27  43
ATOM     43  C   UNK d   0     -18.736  -6.391  -6.613  0.00  0.00     0.052 C 
BRANCH  43  44
ATOM     44  C   UNK d   0     -17.895  -6.541  -5.387  0.00  0.00     0.115 C 
BRANCH  44  45
ATOM     45  C   UNK d   0     -16.772  -7.444  -5.750  0.00  0.00     0.139 C 
ATOM     46  O   UNK d   0     -16.973  -8.683  -5.714  0.00  0.00    -0.650 OA
BRANCH  45  47
ATOM     47  O   UNK d   0     -15.531  -6.978  -6.127  0.00  0.00    -0.776 OA
ATOM     48  H   UNK d   0     -14.709  -7.595  -6.232  0.00  0.00     0.167 HD
ENDBRANCH  45  47
ENDBRANCH  44  45
ENDBRANCH  43  44
ENDBRANCH  27  43
BRANCH  24  49
ATOM     49  C   UNK d   0     -18.246  -1.929  -3.372  0.00  0.00     0.052 C 
BRANCH  49  50
ATOM     50  C   UNK d   0     -19.513  -1.199  -3.738  0.00  0.00     0.115 C 
BRANCH  50  51
ATOM     51  C   UNK d   0     -19.806   0.030  -3.012  0.00  0.00     0.139 C 
ATOM     52  O   UNK d   0     -19.239   0.330  -1.935  0.00  0.00    -0.650 OA
BRANCH  51  53
ATOM     53  O   UNK d   0     -20.748   0.915  -3.514  0.00  0.00    -0.776 OA
ATOM     54  H   UNK d   0     -20.991   0.850  -4.487  0.00  0.00     0.167 HD
ENDBRANCH  51  53
ENDBRANCH  50  51
ENDBRANCH  49  50
ENDBRANCH  24  49
BRANCH  21  55
ATOM     55  C   UNK d   0     -15.725  -0.144  -3.291  0.00  0.00     0.151 C 
BRANCH  55  56
ATOM     56  C   UNK d   0     -14.559  -0.689  -2.580  0.00  0.00     0.143 C 
ATOM     57  O   UNK d   0     -13.631   0.027  -2.157  0.00  0.00    -0.650 OA
BRANCH  56  58
ATOM     58  O   UNK d   0     -14.507  -2.068  -2.379  0.00  0.00    -0.776 OA
ATOM     59  H   UNK d   0     -14.999  -2.632  -3.095  0.00  0.00     0.167 HD
ENDBRANCH  56  58
ENDBRANCH  55  56
ENDBRANCH  21  55
BRANCH  18  60
ATOM     60  C   UNK d   0     -13.151   1.712  -7.620  0.00  0.00     0.151 C 
BRANCH  60  61
ATOM     61  C   UNK d   0     -14.494   2.309  -7.676  0.00  0.00     0.143 C 
ATOM     62  O   UNK d   0     -15.134   2.603  -8.686  0.00  0.00    -0.650 OA
BRANCH  61  63
ATOM     63  O   UNK d   0     -15.093   2.564  -6.419  0.00  0.00    -0.776 OA
ATOM     64  H   UNK d   0     -16.085   2.700  -6.335  0.00  0.00     0.167 HD
ENDBRANCH  61  63
ENDBRANCH  60  61
ENDBRANCH  18  60
BRANCH  14  65
ATOM     65  C   UNK d   0     -12.221   0.807 -10.363  0.00  0.00     0.052 C 
BRANCH  65  66
ATOM     66  C   UNK d   0     -10.794   0.441 -10.571  0.00  0.00     0.115 C 
BRANCH  66  67
ATOM     67  C   UNK d   0      -9.768   1.137  -9.847  0.00  0.00     0.139 C 
ATOM     68  O   UNK d   0     -10.101   1.805  -8.800  0.00  0.00    -0.650 OA
BRANCH  67  69
ATOM     69  O   UNK d   0      -8.405   1.189 -10.137  0.00  0.00    -0.776 OA
ATOM     70  H   UNK d   0      -7.775   1.228  -9.323  0.00  0.00     0.167 HD
ENDBRANCH  67  69
ENDBRANCH  66  67
ENDBRANCH  65  66
ENDBRANCH  14  65
ENDBRANCH   6   7
ENDBRANCH   5   6
ENDBRANCH   2   5
TORSDOF 28
ENDMDL
MODEL 13
REMARK VINA RESULT:      -8.7      2.018      7.911
REMARK  28 active torsions:
REMARK  status: ('A' for Active; 'I' for Inactive)
REMARK    1  A    between atoms: C_2  and  O_3 
REMARK    2  A    between atoms: C_2  and  C_4 
REMARK    3  A    between atoms: C_4  and  C_5 
REMARK    4  A    between atoms: C_5  and  C_6 
REMARK    5  A    between atoms: C_7  and  C_8 
REMARK    6  A    between atoms: C_8  and  C_9 
REMARK    7  A    between atoms: C_9  and  O_11 
REMARK    8  A    between atoms: C_28  and  C_29 
REMARK    9  A    between atoms: C_29  and  C_30 
REMARK   10  A    between atoms: C_30  and  O_32 
REMARK   11  A    between atoms: C_33  and  C_34 
REMARK   12  A    between atoms: C_34  and  C_35 
REMARK   13  A    between atoms: C_35  and  C_36 
REMARK   14  A    between atoms: C_36  and  O_38 
REMARK   15  A    between atoms: C_39  and  C_40 
REMARK   16  A    between atoms: C_40  and  C_41 
REMARK   17  A    between atoms: C_41  and  C_42 
REMARK   18  A    between atoms: C_42  and  O_44 
REMARK   19  A    between atoms: C_45  and  C_46 
REMARK   20  A    between atoms: C_46  and  C_47 
REMARK   21  A    between atoms: C_47  and  O_49 
REMARK   22  A    between atoms: C_50  and  C_51 
REMARK   23  A    between atoms: C_51  and  C_52 
REMARK   24  A    between atoms: C_52  and  O_54 
REMARK   25  A    between atoms: C_55  and  C_56 
REMARK   26  A    between atoms: C_56  and  C_57 
REMARK   27  A    between atoms: C_57  and  C_58 
REMARK   28  A    between atoms: C_58  and  O_60 
ROOT
ATOM      1  O   UNK d   0      12.908  -1.862   2.792  0.00  0.00    -0.650 OA
ATOM      2  C   UNK d   0      12.268  -1.881   3.867  0.00  0.00     0.139 C 
ENDROOT
BRANCH   2   3
ATOM      3  O   UNK d   0      11.060  -2.535   3.920  0.00  0.00    -0.776 OA
ATOM      4  H   UNK d   0      10.741  -3.118   3.143  0.00  0.00     0.167 HD
ENDBRANCH   2   3
BRANCH   2   5
ATOM      5  C   UNK d   0      12.813  -1.200   5.076  0.00  0.00     0.115 C 
BRANCH   5   6
ATOM      6  C   UNK d   0      14.049  -1.910   5.556  0.00  0.00     0.052 C 
BRANCH   6   7
ATOM      7  C   UNK d   0      14.035  -2.157   7.046  0.00  0.00    -0.020 A 
ATOM      8  C   UNK d   0      14.768  -1.573   7.959  0.00  0.00    -0.011 A 
ATOM      9  C   UNK d   0      14.410  -2.143   9.248  0.00  0.00     0.067 A 
ATOM     10  C   UNK d   0      14.795  -1.946  10.583  0.00  0.00     0.062 C 
ATOM     11  N   UNK d   0      13.456  -3.070   9.025  0.00  0.00    -0.248 NA
ATOM     12  C   UNK d   0      14.135  -2.399  11.731  0.00  0.00     0.041 A 
ATOM     13  N   UNK d   0      13.558  -3.583  12.013  0.00  0.00    -0.355 N 
ATOM     14  C   UNK d   0      13.949  -1.509  12.804  0.00  0.00    -0.022 A 
ATOM     15  C   UNK d   0      13.005  -3.464  13.235  0.00  0.00     0.042 A 
ATOM     16  H   UNK d   0      13.559  -4.490  11.369  0.00  0.00     0.166 HD
ATOM     17  C   UNK d   0      12.284  -4.398  14.005  0.00  0.00     0.062 C 
ATOM     18  C   UNK d   0      13.229  -2.178  13.763  0.00  0.00    -0.013 A 
ATOM     19  C   UNK d   0      11.282  -5.249  13.614  0.00  0.00     0.067 A 
ATOM     20  N   UNK d   0      11.072  -5.373  12.301  0.00  0.00    -0.248 NA
ATOM     21  C   UNK d   0      10.311  -6.098  14.284  0.00  0.00    -0.011 A 
ATOM     22  C   UNK d   0      10.034  -6.240  12.064  0.00  0.00     0.066 A 
ATOM     23  C   UNK d   0       9.732  -6.491  10.733  0.00  0.00     0.062 C 
ATOM     24  C   UNK d   0       9.582  -6.672  13.371  0.00  0.00    -0.020 A 
ATOM     25  C   UNK d   0      10.416  -6.037   9.595  0.00  0.00     0.041 A 
ATOM     26  N   UNK d   0      10.977  -4.856   9.309  0.00  0.00    -0.355 N 
ATOM     27  C   UNK d   0      10.606  -6.932   8.519  0.00  0.00    -0.022 A 
ATOM     28  C   UNK d   0      11.521  -4.968   8.087  0.00  0.00     0.042 A 
ATOM     29  H   UNK d   0      10.966  -3.942   9.952  0.00  0.00     0.166 HD
ATOM     30  C   UNK d   0      12.233  -4.045   7.305  0.00  0.00     0.062 C 
ATOM     31  C   UNK d   0      11.305  -6.264   7.561  0.00  0.00    -0.013 A 
ATOM     32  C   UNK d   0      13.185  -3.127   7.720  0.00  0.00     0.066 A 
BRANCH   8  33
ATOM     33  C   UNK d   0      15.784  -0.527   7.742  0.00  0.00     0.151 C 
BRANCH  33  34
ATOM     34  C   UNK d   0      15.257   0.833   7.958  0.00  0.00     0.143 C 
ATOM     35  O   UNK d   0      14.173   1.181   7.468  0.00  0.00    -0.650 OA
BRANCH  34  36
ATOM     36  O   UNK d   0      15.982   1.726   8.712  0.00  0.00    -0.776 OA
ATOM     37  H   UNK d   0      16.187   1.545   9.705  0.00  0.00     0.167 HD
ENDBRANCH  34  36
ENDBRANCH  33  34
ENDBRANCH   8  33
BRANCH  31  38
ATOM     38  C   UNK d   0      11.752  -6.824   6.231  0.00  0.00     0.151 C 
BRANCH  38  39
ATOM     39  C   UNK d   0      10.856  -6.482   5.147  0.00  0.00     0.143 C 
ATOM     40  O   UNK d   0      10.840  -5.352   4.629  0.00  0.00    -0.650 OA
BRANCH  39  41
ATOM     41  O   UNK d   0       9.974  -7.445   4.657  0.00  0.00    -0.776 OA
ATOM     42  H   UNK d   0      10.270  -8.423   4.733  0.00  0.00     0.167 HD
ENDBRANCH  39  41
ENDBRANCH  38  39
ENDBRANCH  31  38
BRANCH  27  43
ATOM     43  C   UNK d   0      10.155  -8.364   8.373  0.00  0.00     0.052 C 
BRANCH  43  44
ATOM     44  C   UNK d   0       8.851  -8.502   7.657  0.00  0.00     0.115 C 
BRANCH  44  45
ATOM     45  C   UNK d   0       7.811  -8.694   8.702  0.00  0.00     0.139 C 
ATOM     46  O   UNK d   0       6.976  -7.773   8.881  0.00  0.00    -0.650 OA
BRANCH  45  47
ATOM     47  O   UNK d   0       7.726  -9.834   9.472  0.00  0.00    -0.776 OA
ATOM     48  H   UNK d   0       7.385 -10.735   9.101  0.00  0.00     0.167 HD
ENDBRANCH  45  47
ENDBRANCH  44  45
ENDBRANCH  43  44
ENDBRANCH  27  43
BRANCH  24  49
ATOM     49  C   UNK d   0       8.501  -7.645  13.608  0.00  0.00     0.052 C 
BRANCH  49  50
ATOM     50  C   UNK d   0       7.156  -6.989  13.428  0.00  0.00     0.115 C 
BRANCH  50  51
ATOM     51  C   UNK d   0       6.348  -7.430  12.299  0.00  0.00     0.139 C 
ATOM     52  O   UNK d   0       5.530  -6.678  11.718  0.00  0.00    -0.650 OA
BRANCH  51  53
ATOM     53  O   UNK d   0       6.471  -8.730  11.832  0.00  0.00    -0.776 OA
ATOM     54  H   UNK d   0       6.748  -8.868  10.877  0.00  0.00     0.167 HD
ENDBRANCH  51  53
ENDBRANCH  50  51
ENDBRANCH  49  50
ENDBRANCH  24  49
BRANCH  21  55
ATOM     55  C   UNK d   0      10.218  -6.251  15.766  0.00  0.00     0.151 C 
BRANCH  55  56
ATOM     56  C   UNK d   0      11.089  -7.325  16.266  0.00  0.00     0.143 C 
ATOM     57  O   UNK d   0      12.191  -7.596  15.750  0.00  0.00    -0.650 OA
BRANCH  56  58
ATOM     58  O   UNK d   0      10.647  -8.062  17.364  0.00  0.00    -0.776 OA
ATOM     59  H   UNK d   0      11.368  -8.246  18.085  0.00  0.00     0.167 HD
ENDBRANCH  56  58
ENDBRANCH  55  56
ENDBRANCH  21  55
BRANCH  18  60
ATOM     60  C   UNK d   0      12.798  -1.594  15.085  0.00  0.00     0.151 C 
BRANCH  60  61
ATOM     61  C   UNK d   0      11.372  -1.266  14.935  0.00  0.00     0.143 C 
ATOM     62  O   UNK d   0      10.877  -0.440  14.168  0.00  0.00    -0.650 OA
BRANCH  61  63
ATOM     63  O   UNK d   0      10.495  -1.993  15.776  0.00  0.00    -0.776 OA
ATOM     64  H   UNK d   0      10.037  -1.552  16.553  0.00  0.00     0.167 HD
ENDBRANCH  61  63
ENDBRANCH  60  61
ENDBRANCH  18  60
BRANCH  14  65
ATOM     65  C   UNK d   0      14.480  -0.122  13.032  0.00  0.00     0.052 C 
BRANCH  65  66
ATOM     66  C   UNK d   0      13.524   0.941  12.624  0.00  0.00     0.115 C 
BRANCH  66  67
ATOM     67  C   UNK d   0      13.594   1.491  11.299  0.00  0.00     0.139 C 
ATOM     68  O   UNK d   0      14.476   2.396  11.057  0.00  0.00    -0.650 OA
BRANCH  67  69
ATOM     69  O   UNK d   0      12.805   1.166  10.197  0.00  0.00    -0.776 OA
ATOM     70  H   UNK d   0      12.646   1.926   9.520  0.00  0.00     0.167 HD
ENDBRANCH  67  69
ENDBRANCH  66  67
ENDBRANCH  65  66
ENDBRANCH  14  65
ENDBRANCH   6   7
ENDBRANCH   5   6
ENDBRANCH   2   5
TORSDOF 28
ENDMDL
MODEL 14
REMARK VINA RESULT:      -8.7     30.006     33.699
REMARK  28 active torsions:
REMARK  status: ('A' for Active; 'I' for Inactive)
REMARK    1  A    between atoms: C_2  and  O_3 
REMARK    2  A    between atoms: C_2  and  C_4 
REMARK    3  A    between atoms: C_4  and  C_5 
REMARK    4  A    between atoms: C_5  and  C_6 
REMARK    5  A    between atoms: C_7  and  C_8 
REMARK    6  A    between atoms: C_8  and  C_9 
REMARK    7  A    between atoms: C_9  and  O_11 
REMARK    8  A    between atoms: C_28  and  C_29 
REMARK    9  A    between atoms: C_29  and  C_30 
REMARK   10  A    between atoms: C_30  and  O_32 
REMARK   11  A    between atoms: C_33  and  C_34 
REMARK   12  A    between atoms: C_34  and  C_35 
REMARK   13  A    between atoms: C_35  and  C_36 
REMARK   14  A    between atoms: C_36  and  O_38 
REMARK   15  A    between atoms: C_39  and  C_40 
REMARK   16  A    between atoms: C_40  and  C_41 
REMARK   17  A    between atoms: C_41  and  C_42 
REMARK   18  A    between atoms: C_42  and  O_44 
REMARK   19  A    between atoms: C_45  and  C_46 
REMARK   20  A    between atoms: C_46  and  C_47 
REMARK   21  A    between atoms: C_47  and  O_49 
REMARK   22  A    between atoms: C_50  and  C_51 
REMARK   23  A    between atoms: C_51  and  C_52 
REMARK   24  A    between atoms: C_52  and  O_54 
REMARK   25  A    between atoms: C_55  and  C_56 
REMARK   26  A    between atoms: C_56  and  C_57 
REMARK   27  A    between atoms: C_57  and  C_58 
REMARK   28  A    between atoms: C_58  and  O_60 
ROOT
ATOM      1  O   UNK d   0      -8.731   3.072  -9.590  0.00  0.00    -0.650 OA
ATOM      2  C   UNK d   0      -8.968   2.180 -10.435  0.00  0.00     0.139 C 
ENDROOT
BRANCH   2   3
ATOM      3  O   UNK d   0      -8.361   2.241 -11.667  0.00  0.00    -0.776 OA
ATOM      4  H   UNK d   0      -8.845   1.925 -12.510  0.00  0.00     0.167 HD
ENDBRANCH   2   3
BRANCH   2   5
ATOM      5  C   UNK d   0      -9.900   1.065 -10.105  0.00  0.00     0.115 C 
BRANCH   5   6
ATOM      6  C   UNK d   0     -11.322   1.556 -10.128  0.00  0.00     0.052 C 
BRANCH   6   7
ATOM      7  C   UNK d   0     -12.308   0.465 -10.473  0.00  0.00    -0.020 A 
ATOM      8  C   UNK d   0     -12.717   0.107 -11.663  0.00  0.00    -0.011 A 
ATOM      9  C   UNK d   0     -13.670  -0.979 -11.497  0.00  0.00     0.067 A 
ATOM     10  C   UNK d   0     -14.433  -1.795 -12.347  0.00  0.00     0.062 C 
ATOM     11  N   UNK d   0     -13.784  -1.213 -10.173  0.00  0.00    -0.248 NA
ATOM     12  C   UNK d   0     -15.090  -2.984 -12.014  0.00  0.00     0.041 A 
ATOM     13  N   UNK d   0     -15.830  -3.317 -10.939  0.00  0.00    -0.355 N 
ATOM     14  C   UNK d   0     -14.965  -4.094 -12.869  0.00  0.00    -0.022 A 
ATOM     15  C   UNK d   0     -16.171  -4.611 -11.087  0.00  0.00     0.042 A 
ATOM     16  H   UNK d   0     -16.122  -2.645 -10.102  0.00  0.00     0.166 HD
ATOM     17  C   UNK d   0     -16.938  -5.454 -10.257  0.00  0.00     0.062 C 
ATOM     18  C   UNK d   0     -15.647  -5.132 -12.285  0.00  0.00    -0.013 A 
ATOM     19  C   UNK d   0     -16.883  -5.605  -8.895  0.00  0.00     0.067 A 
ATOM     20  N   UNK d   0     -16.159  -4.712  -8.216  0.00  0.00    -0.248 NA
ATOM     21  C   UNK d   0     -17.424  -6.543  -7.926  0.00  0.00    -0.011 A 
ATOM     22  C   UNK d   0     -16.186  -4.999  -6.873  0.00  0.00     0.066 A 
ATOM     23  C   UNK d   0     -15.501  -4.124  -6.042  0.00  0.00     0.062 C 
ATOM     24  C   UNK d   0     -17.009  -6.185  -6.745  0.00  0.00    -0.020 A 
ATOM     25  C   UNK d   0     -14.858  -2.928  -6.395  0.00  0.00     0.041 A 
ATOM     26  N   UNK d   0     -14.110  -2.602  -7.456  0.00  0.00    -0.355 N 
ATOM     27  C   UNK d   0     -14.988  -1.814  -5.538  0.00  0.00    -0.022 A 
ATOM     28  C   UNK d   0     -13.761  -1.314  -7.307  0.00  0.00     0.042 A 
ATOM     29  H   UNK d   0     -13.809  -3.281  -8.291  0.00  0.00     0.166 HD
ATOM     30  C   UNK d   0     -12.992  -0.466  -8.119  0.00  0.00     0.062 C 
ATOM     31  C   UNK d   0     -14.298  -0.788  -6.108  0.00  0.00    -0.013 A 
ATOM     32  C   UNK d   0     -12.990  -0.377  -9.502  0.00  0.00     0.066 A 
BRANCH   8  33
ATOM     33  C   UNK d   0     -12.305   0.689 -12.953  0.00  0.00     0.151 C 
BRANCH  33  34
ATOM     34  C   UNK d   0     -11.009   0.170 -13.425  0.00  0.00     0.143 C 
ATOM     35  O   UNK d   0     -10.037   0.925 -13.572  0.00  0.00    -0.650 OA
BRANCH  34  36
ATOM     36  O   UNK d   0     -10.879  -1.170 -13.706  0.00  0.00    -0.776 OA
ATOM     37  H   UNK d   0     -11.658  -1.709 -14.107  0.00  0.00     0.167 HD
ENDBRANCH  34  36
ENDBRANCH  33  34
ENDBRANCH   8  33
BRANCH  31  38
ATOM     38  C   UNK d   0     -14.165   0.612  -5.555  0.00  0.00     0.151 C 
BRANCH  38  39
ATOM     39  C   UNK d   0     -14.935   1.585  -6.300  0.00  0.00     0.143 C 
ATOM     40  O   UNK d   0     -15.787   1.255  -7.144  0.00  0.00    -0.650 OA
BRANCH  39  41
ATOM     41  O   UNK d   0     -14.726   2.945  -6.073  0.00  0.00    -0.776 OA
ATOM     42  H   UNK d   0     -13.771   3.293  -6.204  0.00  0.00     0.167 HD
ENDBRANCH  39  41
ENDBRANCH  38  39
ENDBRANCH  31  38
BRANCH  27  43
ATOM     43  C   UNK d   0     -15.725  -1.693  -4.228  0.00  0.00     0.052 C 
BRANCH  43  44
ATOM     44  C   UNK d   0     -17.210  -1.765  -4.376  0.00  0.00     0.115 C 
BRANCH  44  45
ATOM     45  C   UNK d   0     -17.661  -0.409  -4.783  0.00  0.00     0.139 C 
ATOM     46  O   UNK d   0     -17.522   0.533  -3.964  0.00  0.00    -0.650 OA
BRANCH  45  47
ATOM     47  O   UNK d   0     -18.217  -0.145  -6.017  0.00  0.00    -0.776 OA
ATOM     48  H   UNK d   0     -18.200  -0.823  -6.796  0.00  0.00     0.167 HD
ENDBRANCH  45  47
ENDBRANCH  44  45
ENDBRANCH  43  44
ENDBRANCH  27  43
BRANCH  24  49
ATOM     49  C   UNK d   0     -17.351  -6.838  -5.470  0.00  0.00     0.052 C 
BRANCH  49  50
ATOM     50  C   UNK d   0     -16.359  -7.928  -5.155  0.00  0.00     0.115 C 
BRANCH  50  51
ATOM     51  C   UNK d   0     -16.895  -9.251  -4.866  0.00  0.00     0.139 C 
ATOM     52  O   UNK d   0     -16.198 -10.170  -4.375  0.00  0.00    -0.650 OA
BRANCH  51  53
ATOM     53  O   UNK d   0     -18.226  -9.527  -5.138  0.00  0.00    -0.776 OA
ATOM     54  H   UNK d   0     -18.602 -10.407  -4.830  0.00  0.00     0.167 HD
ENDBRANCH  51  53
ENDBRANCH  50  51
ENDBRANCH  49  50
ENDBRANCH  24  49
BRANCH  21  55
ATOM     55  C   UNK d   0     -18.303  -7.696  -8.281  0.00  0.00     0.151 C 
BRANCH  55  56
ATOM     56  C   UNK d   0     -17.530  -8.921  -8.539  0.00  0.00     0.143 C 
ATOM     57  O   UNK d   0     -17.891 -10.045  -8.140  0.00  0.00    -0.650 OA
BRANCH  56  58
ATOM     58  O   UNK d   0     -16.345  -8.799  -9.263  0.00  0.00    -0.776 OA
ATOM     59  H   UNK d   0     -15.553  -8.384  -8.738  0.00  0.00     0.167 HD
ENDBRANCH  56  58
ENDBRANCH  55  56
ENDBRANCH  21  55
BRANCH  18  60
ATOM     60  C   UNK d   0     -15.765  -6.521 -12.862  0.00  0.00     0.151 C 
BRANCH  60  61
ATOM     61  C   UNK d   0     -14.604  -7.269 -12.357  0.00  0.00     0.143 C 
ATOM     62  O   UNK d   0     -14.309  -7.477 -11.180  0.00  0.00    -0.650 OA
BRANCH  61  63
ATOM     63  O   UNK d   0     -13.748  -7.797 -13.354  0.00  0.00    -0.776 OA
ATOM     64  H   UNK d   0     -14.036  -7.839 -14.315  0.00  0.00     0.167 HD
ENDBRANCH  61  63
ENDBRANCH  60  61
ENDBRANCH  18  60
BRANCH  14  65
ATOM     65  C   UNK d   0     -14.340  -4.218 -14.230  0.00  0.00     0.052 C 
BRANCH  65  66
ATOM     66  C   UNK d   0     -12.975  -3.632 -14.298  0.00  0.00     0.115 C 
BRANCH  66  67
ATOM     67  C   UNK d   0     -11.829  -4.470 -14.083  0.00  0.00     0.139 C 
ATOM     68  O   UNK d   0     -12.020  -5.691 -13.729  0.00  0.00    -0.650 OA
BRANCH  67  69
ATOM     69  O   UNK d   0     -10.484  -4.125 -14.209  0.00  0.00    -0.776 OA
ATOM     70  H   UNK d   0     -10.213  -3.701 -15.108  0.00  0.00     0.167 HD
ENDBRANCH  67  69
ENDBRANCH  66  67
ENDBRANCH  65  66
ENDBRANCH  14  65
ENDBRANCH   6   7
ENDBRANCH   5   6
ENDBRANCH   2   5
TORSDOF 28
ENDMDL
MODEL 15
REMARK VINA RESULT:      -8.6      2.140      8.266
REMARK  28 active torsions:
REMARK  status: ('A' for Active; 'I' for Inactive)
REMARK    1  A    between atoms: C_2  and  O_3 
REMARK    2  A    between atoms: C_2  and  C_4 
REMARK    3  A    between atoms: C_4  and  C_5 
REMARK    4  A    between atoms: C_5  and  C_6 
REMARK    5  A    between atoms: C_7  and  C_8 
REMARK    6  A    between atoms: C_8  and  C_9 
REMARK    7  A    between atoms: C_9  and  O_11 
REMARK    8  A    between atoms: C_28  and  C_29 
REMARK    9  A    between atoms: C_29  and  C_30 
REMARK   10  A    between atoms: C_30  and  O_32 
REMARK   11  A    between atoms: C_33  and  C_34 
REMARK   12  A    between atoms: C_34  and  C_35 
REMARK   13  A    between atoms: C_35  and  C_36 
REMARK   14  A    between atoms: C_36  and  O_38 
REMARK   15  A    between atoms: C_39  and  C_40 
REMARK   16  A    between atoms: C_40  and  C_41 
REMARK   17  A    between atoms: C_41  and  C_42 
REMARK   18  A    between atoms: C_42  and  O_44 
REMARK   19  A    between atoms: C_45  and  C_46 
REMARK   20  A    between atoms: C_46  and  C_47 
REMARK   21  A    between atoms: C_47  and  O_49 
REMARK   22  A    between atoms: C_50  and  C_51 
REMARK   23  A    between atoms: C_51  and  C_52 
REMARK   24  A    between atoms: C_52  and  O_54 
REMARK   25  A    between atoms: C_55  and  C_56 
REMARK   26  A    between atoms: C_56  and  C_57 
REMARK   27  A    between atoms: C_57  and  C_58 
REMARK   28  A    between atoms: C_58  and  O_60 
ROOT
ATOM      1  O   UNK d   0       4.519  -8.221  10.330  0.00  0.00    -0.650 OA
ATOM      2  C   UNK d   0       5.190  -7.167  10.413  0.00  0.00     0.139 C 
ENDROOT
BRANCH   2   3
ATOM      3  O   UNK d   0       4.837  -6.083   9.647  0.00  0.00    -0.776 OA
ATOM      4  H   UNK d   0       4.377  -6.203   8.742  0.00  0.00     0.167 HD
ENDBRANCH   2   3
BRANCH   2   5
ATOM      5  C   UNK d   0       6.358  -7.095  11.335  0.00  0.00     0.115 C 
BRANCH   5   6
ATOM      6  C   UNK d   0       7.383  -8.129  10.954  0.00  0.00     0.052 C 
BRANCH   6   7
ATOM      7  C   UNK d   0       8.475  -7.568  10.074  0.00  0.00    -0.020 A 
ATOM      8  C   UNK d   0       8.787  -7.935   8.858  0.00  0.00    -0.011 A 
ATOM      9  C   UNK d   0       9.907  -7.119   8.420  0.00  0.00     0.067 A 
ATOM     10  C   UNK d   0      10.677  -6.998   7.253  0.00  0.00     0.062 C 
ATOM     11  N   UNK d   0      10.215  -6.284   9.435  0.00  0.00    -0.248 NA
ATOM     12  C   UNK d   0      11.544  -5.953   6.914  0.00  0.00     0.041 A 
ATOM     13  N   UNK d   0      12.450  -5.280   7.648  0.00  0.00    -0.355 N 
ATOM     14  C   UNK d   0      11.487  -5.416   5.615  0.00  0.00    -0.022 A 
ATOM     15  C   UNK d   0      12.964  -4.325   6.850  0.00  0.00     0.042 A 
ATOM     16  H   UNK d   0      12.735  -5.488   8.702  0.00  0.00     0.166 HD
ATOM     17  C   UNK d   0      13.945  -3.347   7.111  0.00  0.00     0.062 C 
ATOM     18  C   UNK d   0      12.385  -4.379   5.568  0.00  0.00    -0.013 A 
ATOM     19  C   UNK d   0      14.079  -2.531   8.205  0.00  0.00     0.067 A 
ATOM     20  N   UNK d   0      13.315  -2.809   9.264  0.00  0.00    -0.248 NA
ATOM     21  C   UNK d   0      14.870  -1.360   8.544  0.00  0.00    -0.011 A 
ATOM     22  C   UNK d   0      13.547  -1.903  10.271  0.00  0.00     0.066 A 
ATOM     23  C   UNK d   0      12.842  -2.098  11.450  0.00  0.00     0.062 C 
ATOM     24  C   UNK d   0      14.551  -0.995   9.753  0.00  0.00    -0.020 A 
ATOM     25  C   UNK d   0      11.986  -3.161  11.775  0.00  0.00     0.041 A 
ATOM     26  N   UNK d   0      11.075  -3.821  11.050  0.00  0.00    -0.355 N 
ATOM     27  C   UNK d   0      12.047  -3.702  13.078  0.00  0.00    -0.022 A 
ATOM     28  C   UNK d   0      10.554  -4.768  11.846  0.00  0.00     0.042 A 
ATOM     29  H   UNK d   0      10.782  -3.603   9.993  0.00  0.00     0.166 HD
ATOM     30  C   UNK d   0       9.572  -5.741  11.602  0.00  0.00     0.062 C 
ATOM     31  C   UNK d   0      11.145  -4.720  13.131  0.00  0.00    -0.013 A 
ATOM     32  C   UNK d   0       9.390  -6.504  10.459  0.00  0.00     0.066 A 
BRANCH   8  33
ATOM     33  C   UNK d   0       8.138  -8.991   8.058  0.00  0.00     0.151 C 
BRANCH  33  34
ATOM     34  C   UNK d   0       8.757 -10.314   8.250  0.00  0.00     0.143 C 
ATOM     35  O   UNK d   0       8.076 -11.348   8.202  0.00  0.00    -0.650 OA
BRANCH  34  36
ATOM     36  O   UNK d   0      10.110 -10.400   8.486  0.00  0.00    -0.776 OA
ATOM     37  H   UNK d   0      10.796 -10.167   7.755  0.00  0.00     0.167 HD
ENDBRANCH  34  36
ENDBRANCH  33  34
ENDBRANCH   8  33
BRANCH  31  38
ATOM     38  C   UNK d   0      10.868  -5.604  14.325  0.00  0.00     0.151 C 
BRANCH  38  39
ATOM     39  C   UNK d   0      11.655  -6.819  14.319  0.00  0.00     0.143 C 
ATOM     40  O   UNK d   0      11.345  -7.809  13.635  0.00  0.00    -0.650 OA
BRANCH  39  41
ATOM     41  O   UNK d   0      12.805  -6.894  15.104  0.00  0.00    -0.776 OA
ATOM     42  H   UNK d   0      13.481  -7.626  14.863  0.00  0.00     0.167 HD
ENDBRANCH  39  41
ENDBRANCH  38  39
ENDBRANCH  31  38
BRANCH  27  43
ATOM     43  C   UNK d   0      12.910  -3.294  14.246  0.00  0.00     0.052 C 
BRANCH  43  44
ATOM     44  C   UNK d   0      14.265  -3.923  14.227  0.00  0.00     0.115 C 
BRANCH  44  45
ATOM     45  C   UNK d   0      15.214  -2.872  13.774  0.00  0.00     0.139 C 
ATOM     46  O   UNK d   0      16.159  -3.212  13.021  0.00  0.00    -0.650 OA
BRANCH  45  47
ATOM     47  O   UNK d   0      15.094  -1.549  14.142  0.00  0.00    -0.776 OA
ATOM     48  H   UNK d   0      14.404  -1.221  14.837  0.00  0.00     0.167 HD
ENDBRANCH  45  47
ENDBRANCH  44  45
ENDBRANCH  43  44
ENDBRANCH  27  43
BRANCH  24  49
ATOM     49  C   UNK d   0      15.140   0.125  10.506  0.00  0.00     0.052 C 
BRANCH  49  50
ATOM     50  C   UNK d   0      14.121   1.217  10.706  0.00  0.00     0.115 C 
BRANCH  50  51
ATOM     51  C   UNK d   0      14.247   2.405   9.872  0.00  0.00     0.139 C 
ATOM     52  O   UNK d   0      13.443   3.365   9.937  0.00  0.00    -0.650 OA
BRANCH  51  53
ATOM     53  O   UNK d   0      15.288   2.497   8.962  0.00  0.00    -0.776 OA
ATOM     54  H   UNK d   0      15.085   2.343   7.990  0.00  0.00     0.167 HD
ENDBRANCH  51  53
ENDBRANCH  50  51
ENDBRANCH  49  50
ENDBRANCH  24  49
BRANCH  21  55
ATOM     55  C   UNK d   0      15.865  -0.730   7.627  0.00  0.00     0.151 C 
BRANCH  55  56
ATOM     56  C   UNK d   0      15.241   0.249   6.724  0.00  0.00     0.143 C 
ATOM     57  O   UNK d   0      14.034   0.553   6.789  0.00  0.00    -0.650 OA
BRANCH  56  58
ATOM     58  O   UNK d   0      16.049   0.851   5.761  0.00  0.00    -0.776 OA
ATOM     59  H   UNK d   0      16.628   1.638   6.107  0.00  0.00     0.167 HD
ENDBRANCH  56  58
ENDBRANCH  55  56
ENDBRANCH  21  55
BRANCH  18  60
ATOM     60  C   UNK d   0      12.643  -3.514   4.359  0.00  0.00     0.151 C 
BRANCH  60  61
ATOM     61  C   UNK d   0      11.691  -2.397   4.450  0.00  0.00     0.143 C 
ATOM     62  O   UNK d   0      11.298  -1.838   5.475  0.00  0.00    -0.650 OA
BRANCH  61  63
ATOM     63  O   UNK d   0      11.187  -1.932   3.212  0.00  0.00    -0.776 OA
ATOM     64  H   UNK d   0      11.137  -2.538   2.412  0.00  0.00     0.167 HD
ENDBRANCH  61  63
ENDBRANCH  60  61
ENDBRANCH  18  60
BRANCH  14  65
ATOM     65  C   UNK d   0      10.729  -5.868   4.399  0.00  0.00     0.052 C 
BRANCH  65  66
ATOM     66  C   UNK d   0      11.303  -7.091   3.777  0.00  0.00     0.115 C 
BRANCH  66  67
ATOM     67  C   UNK d   0      11.798  -7.040   2.430  0.00  0.00     0.139 C 
ATOM     68  O   UNK d   0      12.997  -7.445   2.201  0.00  0.00    -0.650 OA
BRANCH  67  69
ATOM     69  O   UNK d   0      11.129  -6.591   1.292  0.00  0.00    -0.776 OA
ATOM     70  H   UNK d   0      11.629  -5.892   0.724  0.00  0.00     0.167 HD
ENDBRANCH  67  69
ENDBRANCH  66  67
ENDBRANCH  65  66
ENDBRANCH  14  65
ENDBRANCH   6   7
ENDBRANCH   5   6
ENDBRANCH   2   5
TORSDOF 28
ENDMDL
MODEL 16
REMARK VINA RESULT:      -8.6     29.432     33.029
REMARK  28 active torsions:
REMARK  status: ('A' for Active; 'I' for Inactive)
REMARK    1  A    between atoms: C_2  and  O_3 
REMARK    2  A    between atoms: C_2  and  C_4 
REMARK    3  A    between atoms: C_4  and  C_5 
REMARK    4  A    between atoms: C_5  and  C_6 
REMARK    5  A    between atoms: C_7  and  C_8 
REMARK    6  A    between atoms: C_8  and  C_9 
REMARK    7  A    between atoms: C_9  and  O_11 
REMARK    8  A    between atoms: C_28  and  C_29 
REMARK    9  A    between atoms: C_29  and  C_30 
REMARK   10  A    between atoms: C_30  and  O_32 
REMARK   11  A    between atoms: C_33  and  C_34 
REMARK   12  A    between atoms: C_34  and  C_35 
REMARK   13  A    between atoms: C_35  and  C_36 
REMARK   14  A    between atoms: C_36  and  O_38 
REMARK   15  A    between atoms: C_39  and  C_40 
REMARK   16  A    between atoms: C_40  and  C_41 
REMARK   17  A    between atoms: C_41  and  C_42 
REMARK   18  A    between atoms: C_42  and  O_44 
REMARK   19  A    between atoms: C_45  and  C_46 
REMARK   20  A    between atoms: C_46  and  C_47 
REMARK   21  A    between atoms: C_47  and  O_49 
REMARK   22  A    between atoms: C_50  and  C_51 
REMARK   23  A    between atoms: C_51  and  C_52 
REMARK   24  A    between atoms: C_52  and  O_54 
REMARK   25  A    between atoms: C_55  and  C_56 
REMARK   26  A    between atoms: C_56  and  C_57 
REMARK   27  A    between atoms: C_57  and  C_58 
REMARK   28  A    between atoms: C_58  and  O_60 
ROOT
ATOM      1  O   UNK d   0     -14.796   3.660  -3.516  0.00  0.00    -0.650 OA
ATOM      2  C   UNK d   0     -13.812   2.911  -3.325  0.00  0.00     0.139 C 
ENDROOT
BRANCH   2   3
ATOM      3  O   UNK d   0     -12.545   3.439  -3.377  0.00  0.00    -0.776 OA
ATOM      4  H   UNK d   0     -12.372   4.421  -3.151  0.00  0.00     0.167 HD
ENDBRANCH   2   3
BRANCH   2   5
ATOM      5  C   UNK d   0     -14.018   1.462  -3.046  0.00  0.00     0.115 C 
BRANCH   5   6
ATOM      6  C   UNK d   0     -15.352   1.016  -3.582  0.00  0.00     0.052 C 
BRANCH   6   7
ATOM      7  C   UNK d   0     -15.229  -0.113  -4.578  0.00  0.00    -0.020 A 
ATOM      8  C   UNK d   0     -15.552  -1.369  -4.404  0.00  0.00    -0.011 A 
ATOM      9  C   UNK d   0     -15.250  -2.080  -5.635  0.00  0.00     0.067 A 
ATOM     10  C   UNK d   0     -15.375  -3.399  -6.099  0.00  0.00     0.062 C 
ATOM     11  N   UNK d   0     -14.741  -1.181  -6.503  0.00  0.00    -0.248 NA
ATOM     12  C   UNK d   0     -15.286  -3.843  -7.423  0.00  0.00     0.041 A 
ATOM     13  N   UNK d   0     -14.431  -3.517  -8.412  0.00  0.00    -0.355 N 
ATOM     14  C   UNK d   0     -16.250  -4.748  -7.904  0.00  0.00    -0.022 A 
ATOM     15  C   UNK d   0     -14.833  -4.186  -9.509  0.00  0.00     0.042 A 
ATOM     16  H   UNK d   0     -13.550  -2.843  -8.330  0.00  0.00     0.166 HD
ATOM     17  C   UNK d   0     -14.297  -4.209 -10.812  0.00  0.00     0.062 C 
ATOM     18  C   UNK d   0     -15.971  -4.968  -9.229  0.00  0.00    -0.013 A 
ATOM     19  C   UNK d   0     -13.866  -3.162 -11.586  0.00  0.00     0.067 A 
ATOM     20  N   UNK d   0     -13.742  -1.976 -10.984  0.00  0.00    -0.248 NA
ATOM     21  C   UNK d   0     -13.496  -2.976 -12.979  0.00  0.00    -0.011 A 
ATOM     22  C   UNK d   0     -13.320  -1.028 -11.883  0.00  0.00     0.066 A 
ATOM     23  C   UNK d   0     -13.112   0.248 -11.380  0.00  0.00     0.062 C 
ATOM     24  C   UNK d   0     -13.181  -1.724 -13.147  0.00  0.00    -0.020 A 
ATOM     25  C   UNK d   0     -13.195   0.671 -10.045  0.00  0.00     0.041 A 
ATOM     26  N   UNK d   0     -14.053   0.359  -9.066  0.00  0.00    -0.355 N 
ATOM     27  C   UNK d   0     -12.225   1.576  -9.562  0.00  0.00    -0.022 A 
ATOM     28  C   UNK d   0     -13.660   1.032  -7.973  0.00  0.00     0.042 A 
ATOM     29  H   UNK d   0     -14.944  -0.310  -9.152  0.00  0.00     0.166 HD
ATOM     30  C   UNK d   0     -14.189   1.071  -6.673  0.00  0.00     0.062 C 
ATOM     31  C   UNK d   0     -12.511   1.809  -8.252  0.00  0.00    -0.013 A 
ATOM     32  C   UNK d   0     -14.702   0.022  -5.927  0.00  0.00     0.066 A 
BRANCH   8  33
ATOM     33  C   UNK d   0     -16.118  -1.977  -3.185  0.00  0.00     0.151 C 
BRANCH  33  34
ATOM     34  C   UNK d   0     -17.592  -1.968  -3.174  0.00  0.00     0.143 C 
ATOM     35  O   UNK d   0     -18.228  -1.134  -3.834  0.00  0.00    -0.650 OA
BRANCH  34  36
ATOM     36  O   UNK d   0     -18.268  -2.898  -2.419  0.00  0.00    -0.776 OA
ATOM     37  H   UNK d   0     -17.812  -3.380  -1.632  0.00  0.00     0.167 HD
ENDBRANCH  34  36
ENDBRANCH  33  34
ENDBRANCH   8  33
BRANCH  31  38
ATOM     38  C   UNK d   0     -11.734   2.705  -7.315  0.00  0.00     0.151 C 
BRANCH  38  39
ATOM     39  C   UNK d   0     -12.276   4.045  -7.242  0.00  0.00     0.143 C 
ATOM     40  O   UNK d   0     -12.954   4.437  -6.276  0.00  0.00    -0.650 OA
BRANCH  39  41
ATOM     41  O   UNK d   0     -12.035   4.940  -8.284  0.00  0.00    -0.776 OA
ATOM     42  H   UNK d   0     -12.690   4.918  -9.072  0.00  0.00     0.167 HD
ENDBRANCH  39  41
ENDBRANCH  38  39
ENDBRANCH  31  38
BRANCH  27  43
ATOM     43  C   UNK d   0     -11.064   2.213 -10.285  0.00  0.00     0.052 C 
BRANCH  43  44
ATOM     44  C   UNK d   0      -9.783   1.462 -10.123  0.00  0.00     0.115 C 
BRANCH  44  45
ATOM     45  C   UNK d   0      -8.732   2.265 -10.801  0.00  0.00     0.139 C 
ATOM     46  O   UNK d   0      -7.937   2.924 -10.087  0.00  0.00    -0.650 OA
BRANCH  45  47
ATOM     47  O   UNK d   0      -8.593   2.308 -12.172  0.00  0.00    -0.776 OA
ATOM     48  H   UNK d   0      -7.705   2.092 -12.652  0.00  0.00     0.167 HD
ENDBRANCH  45  47
ENDBRANCH  44  45
ENDBRANCH  43  44
ENDBRANCH  27  43
BRANCH  24  49
ATOM     49  C   UNK d   0     -12.709  -1.107 -14.399  0.00  0.00     0.052 C 
BRANCH  49  50
ATOM     50  C   UNK d   0     -13.734  -0.134 -14.923  0.00  0.00     0.115 C 
BRANCH  50  51
ATOM     51  C   UNK d   0     -14.775  -0.668 -15.791  0.00  0.00     0.139 C 
ATOM     52  O   UNK d   0     -14.621  -1.712 -16.469  0.00  0.00    -0.650 OA
BRANCH  51  53
ATOM     53  O   UNK d   0     -15.992  -0.011 -15.887  0.00  0.00    -0.776 OA
ATOM     54  H   UNK d   0     -16.678  -0.372 -16.527  0.00  0.00     0.167 HD
ENDBRANCH  51  53
ENDBRANCH  50  51
ENDBRANCH  49  50
ENDBRANCH  24  49
BRANCH  21  55
ATOM     55  C   UNK d   0     -13.491  -4.069 -13.995  0.00  0.00     0.151 C 
BRANCH  55  56
ATOM     56  C   UNK d   0     -12.561  -5.151 -13.637  0.00  0.00     0.143 C 
ATOM     57  O   UNK d   0     -11.326  -5.052 -13.773  0.00  0.00    -0.650 OA
BRANCH  56  58
ATOM     58  O   UNK d   0     -13.102  -6.329 -13.124  0.00  0.00    -0.776 OA
ATOM     59  H   UNK d   0     -12.828  -7.191 -13.628  0.00  0.00     0.167 HD
ENDBRANCH  56  58
ENDBRANCH  55  56
ENDBRANCH  21  55
BRANCH  18  60
ATOM     60  C   UNK d   0     -16.763  -5.872 -10.141  0.00  0.00     0.151 C 
BRANCH  60  61
ATOM     61  C   UNK d   0     -16.008  -7.132 -10.216  0.00  0.00     0.143 C 
ATOM     62  O   UNK d   0     -15.817  -7.938  -9.306  0.00  0.00    -0.650 OA
BRANCH  61  63
ATOM     63  O   UNK d   0     -15.452  -7.426 -11.484  0.00  0.00    -0.776 OA
ATOM     64  H   UNK d   0     -16.030  -7.740 -12.244  0.00  0.00     0.167 HD
ENDBRANCH  61  63
ENDBRANCH  60  61
ENDBRANCH  18  60
BRANCH  14  65
ATOM     65  C   UNK d   0     -17.343  -5.488  -7.187  0.00  0.00     0.052 C 
BRANCH  65  66
ATOM     66  C   UNK d   0     -18.640  -4.759  -7.192  0.00  0.00     0.115 C 
BRANCH  66  67
ATOM     67  C   UNK d   0     -18.947  -3.846  -6.127  0.00  0.00     0.139 C 
ATOM     68  O   UNK d   0     -19.081  -4.315  -4.937  0.00  0.00    -0.650 OA
BRANCH  67  69
ATOM     69  O   UNK d   0     -19.128  -2.466  -6.211  0.00  0.00    -0.776 OA
ATOM     70  H   UNK d   0     -18.369  -1.891  -5.818  0.00  0.00     0.167 HD
ENDBRANCH  67  69
ENDBRANCH  66  67
ENDBRANCH  65  66
ENDBRANCH  14  65
ENDBRANCH   6   7
ENDBRANCH   5   6
ENDBRANCH   2   5
TORSDOF 28
ENDMDL
MODEL 17
REMARK VINA RESULT:      -8.6     29.649     33.954
REMARK  28 active torsions:
REMARK  status: ('A' for Active; 'I' for Inactive)
REMARK    1  A    between atoms: C_2  and  O_3 
REMARK    2  A    between atoms: C_2  and  C_4 
REMARK    3  A    between atoms: C_4  and  C_5 
REMARK    4  A    between atoms: C_5  and  C_6 
REMARK    5  A    between atoms: C_7  and  C_8 
REMARK    6  A    between atoms: C_8  and  C_9 
REMARK    7  A    between atoms: C_9  and  O_11 
REMARK    8  A    between atoms: C_28  and  C_29 
REMARK    9  A    between atoms: C_29  and  C_30 
REMARK   10  A    between atoms: C_30  and  O_32 
REMARK   11  A    between atoms: C_33  and  C_34 
REMARK   12  A    between atoms: C_34  and  C_35 
REMARK   13  A    between atoms: C_35  and  C_36 
REMARK   14  A    between atoms: C_36  and  O_38 
REMARK   15  A    between atoms: C_39  and  C_40 
REMARK   16  A    between atoms: C_40  and  C_41 
REMARK   17  A    between atoms: C_41  and  C_42 
REMARK   18  A    between atoms: C_42  and  O_44 
REMARK   19  A    between atoms: C_45  and  C_46 
REMARK   20  A    between atoms: C_46  and  C_47 
REMARK   21  A    between atoms: C_47  and  O_49 
REMARK   22  A    between atoms: C_50  and  C_51 
REMARK   23  A    between atoms: C_51  and  C_52 
REMARK   24  A    between atoms: C_52  and  O_54 
REMARK   25  A    between atoms: C_55  and  C_56 
REMARK   26  A    between atoms: C_56  and  C_57 
REMARK   27  A    between atoms: C_57  and  C_58 
REMARK   28  A    between atoms: C_58  and  O_60 
ROOT
ATOM      1  O   UNK d   0     -10.038   3.033 -10.129  0.00  0.00    -0.650 OA
ATOM      2  C   UNK d   0      -9.308   2.150 -10.633  0.00  0.00     0.139 C 
ENDROOT
BRANCH   2   3
ATOM      3  O   UNK d   0      -7.959   2.163 -10.374  0.00  0.00    -0.776 OA
ATOM      4  H   UNK d   0      -7.300   1.670 -10.981  0.00  0.00     0.167 HD
ENDBRANCH   2   3
BRANCH   2   5
ATOM      5  C   UNK d   0      -9.901   1.097 -11.505  0.00  0.00     0.115 C 
BRANCH   5   6
ATOM      6  C   UNK d   0     -11.245   1.543 -12.013  0.00  0.00     0.052 C 
BRANCH   6   7
ATOM      7  C   UNK d   0     -12.312   0.488 -11.838  0.00  0.00    -0.020 A 
ATOM      8  C   UNK d   0     -12.860  -0.255 -12.765  0.00  0.00    -0.011 A 
ATOM      9  C   UNK d   0     -13.840  -1.116 -12.124  0.00  0.00     0.067 A 
ATOM     10  C   UNK d   0     -14.725  -2.125 -12.535  0.00  0.00     0.062 C 
ATOM     11  N   UNK d   0     -13.825  -0.827 -10.806  0.00  0.00    -0.248 NA
ATOM     12  C   UNK d   0     -15.399  -3.043 -11.724  0.00  0.00     0.041 A 
ATOM     13  N   UNK d   0     -16.037  -2.887 -10.548  0.00  0.00    -0.355 N 
ATOM     14  C   UNK d   0     -15.416  -4.399 -12.099  0.00  0.00    -0.022 A 
ATOM     15  C   UNK d   0     -16.451  -4.109 -10.164  0.00  0.00     0.042 A 
ATOM     16  H   UNK d   0     -16.207  -1.928 -10.010  0.00  0.00     0.166 HD
ATOM     17  C   UNK d   0     -17.165  -4.513  -9.019  0.00  0.00     0.062 C 
ATOM     18  C   UNK d   0     -16.080  -5.083 -11.112  0.00  0.00    -0.013 A 
ATOM     19  C   UNK d   0     -16.975  -4.147  -7.711  0.00  0.00     0.067 A 
ATOM     20  N   UNK d   0     -16.143  -3.128  -7.482  0.00  0.00    -0.248 NA
ATOM     21  C   UNK d   0     -17.455  -4.606  -6.417  0.00  0.00    -0.011 A 
ATOM     22  C   UNK d   0     -16.042  -2.888  -6.134  0.00  0.00     0.066 A 
ATOM     23  C   UNK d   0     -15.234  -1.826  -5.756  0.00  0.00     0.062 C 
ATOM     24  C   UNK d   0     -16.902  -3.868  -5.499  0.00  0.00    -0.020 A 
ATOM     25  C   UNK d   0     -14.576  -0.907  -6.587  0.00  0.00     0.041 A 
ATOM     26  N   UNK d   0     -13.929  -1.065  -7.748  0.00  0.00    -0.355 N 
ATOM     27  C   UNK d   0     -14.563   0.454  -6.212  0.00  0.00    -0.022 A 
ATOM     28  C   UNK d   0     -13.507   0.151  -8.129  0.00  0.00     0.042 A 
ATOM     29  H   UNK d   0     -13.749  -2.030  -8.283  0.00  0.00     0.166 HD
ATOM     30  C   UNK d   0     -12.788   0.566  -9.260  0.00  0.00     0.062 C 
ATOM     31  C   UNK d   0     -13.889   1.131  -7.181  0.00  0.00    -0.013 A 
ATOM     32  C   UNK d   0     -12.927   0.130 -10.569  0.00  0.00     0.066 A 
BRANCH   8  33
ATOM     33  C   UNK d   0     -12.559  -0.234 -14.208  0.00  0.00     0.151 C 
BRANCH  33  34
ATOM     34  C   UNK d   0     -13.757  -0.432 -15.044  0.00  0.00     0.143 C 
ATOM     35  O   UNK d   0     -14.703   0.367 -14.999  0.00  0.00    -0.650 OA
BRANCH  34  36
ATOM     36  O   UNK d   0     -13.822  -1.520 -15.884  0.00  0.00    -0.776 OA
ATOM     37  H   UNK d   0     -14.648  -1.689 -16.475  0.00  0.00     0.167 HD
ENDBRANCH  34  36
ENDBRANCH  33  34
ENDBRANCH   8  33
BRANCH  31  38
ATOM     38  C   UNK d   0     -13.634   2.620  -7.216  0.00  0.00     0.151 C 
BRANCH  38  39
ATOM     39  C   UNK d   0     -14.779   3.375  -7.678  0.00  0.00     0.143 C 
ATOM     40  O   UNK d   0     -15.367   3.109  -8.741  0.00  0.00    -0.650 OA
BRANCH  39  41
ATOM     41  O   UNK d   0     -15.251   4.442  -6.913  0.00  0.00    -0.776 OA
ATOM     42  H   UNK d   0     -15.053   4.412  -5.908  0.00  0.00     0.167 HD
ENDBRANCH  39  41
ENDBRANCH  38  39
ENDBRANCH  31  38
BRANCH  27  43
ATOM     43  C   UNK d   0     -15.152   1.117  -4.992  0.00  0.00     0.052 C 
BRANCH  43  44
ATOM     44  C   UNK d   0     -14.214   1.156  -3.829  0.00  0.00     0.115 C 
BRANCH  44  45
ATOM     45  C   UNK d   0     -13.964   2.591  -3.533  0.00  0.00     0.139 C 
ATOM     46  O   UNK d   0     -14.763   3.440  -4.002  0.00  0.00    -0.650 OA
BRANCH  45  47
ATOM     47  O   UNK d   0     -12.903   3.022  -2.767  0.00  0.00    -0.776 OA
ATOM     48  H   UNK d   0     -12.397   3.902  -2.956  0.00  0.00     0.167 HD
ENDBRANCH  45  47
ENDBRANCH  44  45
ENDBRANCH  43  44
ENDBRANCH  27  43
BRANCH  24  49
ATOM     49  C   UNK d   0     -17.139  -3.964  -4.048  0.00  0.00     0.052 C 
BRANCH  49  50
ATOM     50  C   UNK d   0     -18.281  -3.068  -3.643  0.00  0.00     0.115 C 
BRANCH  50  51
ATOM     51  C   UNK d   0     -18.260  -2.535  -2.288  0.00  0.00     0.139 C 
ATOM     52  O   UNK d   0     -18.250  -3.269  -1.272  0.00  0.00    -0.650 OA
BRANCH  51  53
ATOM     53  O   UNK d   0     -18.251  -1.162  -2.090  0.00  0.00    -0.776 OA
ATOM     54  H   UNK d   0     -17.612  -0.608  -2.634  0.00  0.00     0.167 HD
ENDBRANCH  51  53
ENDBRANCH  50  51
ENDBRANCH  49  50
ENDBRANCH  24  49
BRANCH  21  55
ATOM     55  C   UNK d   0     -18.419  -5.731  -6.235  0.00  0.00     0.151 C 
BRANCH  55  56
ATOM     56  C   UNK d   0     -17.814  -7.033  -6.552  0.00  0.00     0.143 C 
ATOM     57  O   UNK d   0     -18.455  -7.967  -7.073  0.00  0.00    -0.650 OA
BRANCH  56  58
ATOM     58  O   UNK d   0     -16.464  -7.212  -6.250  0.00  0.00    -0.776 OA
ATOM     59  H   UNK d   0     -16.188  -6.918  -5.296  0.00  0.00     0.167 HD
ENDBRANCH  56  58
ENDBRANCH  55  56
ENDBRANCH  21  55
BRANCH  18  60
ATOM     60  C   UNK d   0     -16.324  -6.572 -11.105  0.00  0.00     0.151 C 
BRANCH  60  61
ATOM     61  C   UNK d   0     -15.429  -7.122 -10.076  0.00  0.00     0.143 C 
ATOM     62  O   UNK d   0     -14.235  -6.867  -9.916  0.00  0.00    -0.650 OA
BRANCH  61  63
ATOM     63  O   UNK d   0     -16.030  -8.044  -9.185  0.00  0.00    -0.776 OA
ATOM     64  H   UNK d   0     -17.027  -8.171  -9.166  0.00  0.00     0.167 HD
ENDBRANCH  61  63
ENDBRANCH  60  61
ENDBRANCH  18  60
BRANCH  14  65
ATOM     65  C   UNK d   0     -14.944  -5.075 -13.355  0.00  0.00     0.052 C 
BRANCH  65  66
ATOM     66  C   UNK d   0     -13.570  -5.632 -13.235  0.00  0.00     0.115 C 
BRANCH  66  67
ATOM     67  C   UNK d   0     -12.454  -4.890 -13.751  0.00  0.00     0.139 C 
ATOM     68  O   UNK d   0     -12.684  -3.793 -14.381  0.00  0.00    -0.650 OA
BRANCH  67  69
ATOM     69  O   UNK d   0     -11.100  -5.211 -13.658  0.00  0.00    -0.776 OA
ATOM     70  H   UNK d   0     -10.615  -5.371 -14.553  0.00  0.00     0.167 HD
ENDBRANCH  67  69
ENDBRANCH  66  67
ENDBRANCH  65  66
ENDBRANCH  14  65
ENDBRANCH   6   7
ENDBRANCH   5   6
ENDBRANCH   2   5
TORSDOF 28
ENDMDL
MODEL 18
REMARK VINA RESULT:      -8.6      1.697      2.168
REMARK  28 active torsions:
REMARK  status: ('A' for Active; 'I' for Inactive)
REMARK    1  A    between atoms: C_2  and  O_3 
REMARK    2  A    between atoms: C_2  and  C_4 
REMARK    3  A    between atoms: C_4  and  C_5 
REMARK    4  A    between atoms: C_5  and  C_6 
REMARK    5  A    between atoms: C_7  and  C_8 
REMARK    6  A    between atoms: C_8  and  C_9 
REMARK    7  A    between atoms: C_9  and  O_11 
REMARK    8  A    between atoms: C_28  and  C_29 
REMARK    9  A    between atoms: C_29  and  C_30 
REMARK   10  A    between atoms: C_30  and  O_32 
REMARK   11  A    between atoms: C_33  and  C_34 
REMARK   12  A    between atoms: C_34  and  C_35 
REMARK   13  A    between atoms: C_35  and  C_36 
REMARK   14  A    between atoms: C_36  and  O_38 
REMARK   15  A    between atoms: C_39  and  C_40 
REMARK   16  A    between atoms: C_40  and  C_41 
REMARK   17  A    between atoms: C_41  and  C_42 
REMARK   18  A    between atoms: C_42  and  O_44 
REMARK   19  A    between atoms: C_45  and  C_46 
REMARK   20  A    between atoms: C_46  and  C_47 
REMARK   21  A    between atoms: C_47  and  O_49 
REMARK   22  A    between atoms: C_50  and  C_51 
REMARK   23  A    between atoms: C_51  and  C_52 
REMARK   24  A    between atoms: C_52  and  O_54 
REMARK   25  A    between atoms: C_55  and  C_56 
REMARK   26  A    between atoms: C_56  and  C_57 
REMARK   27  A    between atoms: C_57  and  C_58 
REMARK   28  A    between atoms: C_58  and  O_60 
ROOT
ATOM      1  O   UNK d   0       9.337  -1.894  18.787  0.00  0.00    -0.650 OA
ATOM      2  C   UNK d   0       9.196  -2.311  17.617  0.00  0.00     0.139 C 
ENDROOT
BRANCH   2   3
ATOM      3  O   UNK d   0       8.145  -1.851  16.860  0.00  0.00    -0.776 OA
ATOM      4  H   UNK d   0       8.172  -0.925  16.428  0.00  0.00     0.167 HD
ENDBRANCH   2   3
BRANCH   2   5
ATOM      5  C   UNK d   0      10.159  -3.299  17.053  0.00  0.00     0.115 C 
BRANCH   5   6
ATOM      6  C   UNK d   0      11.484  -2.638  16.789  0.00  0.00     0.052 C 
BRANCH   6   7
ATOM      7  C   UNK d   0      11.561  -2.017  15.415  0.00  0.00    -0.020 A 
ATOM      8  C   UNK d   0      11.649  -0.747  15.117  0.00  0.00    -0.011 A 
ATOM      9  C   UNK d   0      11.687  -0.631  13.668  0.00  0.00     0.067 A 
ATOM     10  C   UNK d   0      11.795   0.415  12.738  0.00  0.00     0.062 C 
ATOM     11  N   UNK d   0      11.611  -1.881  13.165  0.00  0.00    -0.248 NA
ATOM     12  C   UNK d   0      12.097   0.310  11.376  0.00  0.00     0.041 A 
ATOM     13  N   UNK d   0      11.667  -0.555  10.437  0.00  0.00    -0.355 N 
ATOM     14  C   UNK d   0      13.045   1.187  10.819  0.00  0.00    -0.022 A 
ATOM     15  C   UNK d   0      12.324  -0.254   9.301  0.00  0.00     0.042 A 
ATOM     16  H   UNK d   0      10.900  -1.349  10.570  0.00  0.00     0.166 HD
ATOM     17  C   UNK d   0      12.253  -0.841   8.022  0.00  0.00     0.062 C 
ATOM     18  C   UNK d   0      13.198   0.832   9.502  0.00  0.00    -0.013 A 
ATOM     19  C   UNK d   0      12.238  -2.169   7.682  0.00  0.00     0.067 A 
ATOM     20  N   UNK d   0      12.069  -3.046   8.676  0.00  0.00    -0.248 NA
ATOM     21  C   UNK d   0      12.378  -2.936   6.455  0.00  0.00    -0.011 A 
ATOM     22  C   UNK d   0      12.091  -4.329   8.188  0.00  0.00     0.066 A 
ATOM     23  C   UNK d   0      11.888  -5.343   9.112  0.00  0.00     0.062 C 
ATOM     24  C   UNK d   0      12.295  -4.199   6.759  0.00  0.00    -0.020 A 
ATOM     25  C   UNK d   0      11.574  -5.216  10.474  0.00  0.00     0.041 A 
ATOM     26  N   UNK d   0      12.012  -4.367  11.411  0.00  0.00    -0.355 N 
ATOM     27  C   UNK d   0      10.618  -6.094  11.031  0.00  0.00    -0.022 A 
ATOM     28  C   UNK d   0      11.365  -4.670  12.547  0.00  0.00     0.042 A 
ATOM     29  H   UNK d   0      12.791  -3.576  11.279  0.00  0.00     0.166 HD
ATOM     30  C   UNK d   0      11.432  -4.101  13.828  0.00  0.00     0.062 C 
ATOM     31  C   UNK d   0      10.479  -5.755  12.342  0.00  0.00    -0.013 A 
ATOM     32  C   UNK d   0      11.534  -2.761  14.164  0.00  0.00     0.066 A 
BRANCH   8  33
ATOM     33  C   UNK d   0      11.697   0.383  16.063  0.00  0.00     0.151 C 
BRANCH  33  34
ATOM     34  C   UNK d   0      10.361   0.920  16.379  0.00  0.00     0.143 C 
ATOM     35  O   UNK d   0       9.398   0.712  15.628  0.00  0.00    -0.650 OA
BRANCH  34  36
ATOM     36  O   UNK d   0      10.186   1.664  17.522  0.00  0.00    -0.776 OA
ATOM     37  H   UNK d   0       9.258   2.022  17.790  0.00  0.00     0.167 HD
ENDBRANCH  34  36
ENDBRANCH  33  34
ENDBRANCH   8  33
BRANCH  31  38
ATOM     38  C   UNK d   0       9.553  -6.412  13.339  0.00  0.00     0.151 C 
BRANCH  38  39
ATOM     39  C   UNK d   0      10.124  -7.599  13.939  0.00  0.00     0.143 C 
ATOM     40  O   UNK d   0      11.073  -7.548  14.741  0.00  0.00    -0.650 OA
BRANCH  39  41
ATOM     41  O   UNK d   0       9.600  -8.850  13.616  0.00  0.00    -0.776 OA
ATOM     42  H   UNK d   0       9.222  -8.963  12.670  0.00  0.00     0.167 HD
ENDBRANCH  39  41
ENDBRANCH  38  39
ENDBRANCH  31  38
BRANCH  27  43
ATOM     43  C   UNK d   0       9.853  -7.218  10.377  0.00  0.00     0.052 C 
BRANCH  43  44
ATOM     44  C   UNK d   0       9.053  -6.778   9.195  0.00  0.00     0.115 C 
BRANCH  44  45
ATOM     45  C   UNK d   0       9.126  -7.878   8.199  0.00  0.00     0.139 C 
ATOM     46  O   UNK d   0       8.089  -8.158   7.549  0.00  0.00    -0.650 OA
BRANCH  45  47
ATOM     47  O   UNK d   0      10.279  -8.594   7.960  0.00  0.00    -0.776 OA
ATOM     48  H   UNK d   0      10.504  -9.474   8.451  0.00  0.00     0.167 HD
ENDBRANCH  45  47
ENDBRANCH  44  45
ENDBRANCH  43  44
ENDBRANCH  27  43
BRANCH  24  49
ATOM     49  C   UNK d   0      12.347  -5.325   5.811  0.00  0.00     0.052 C 
BRANCH  49  50
ATOM     50  C   UNK d   0      11.027  -6.052   5.787  0.00  0.00     0.115 C 
BRANCH  50  51
ATOM     51  C   UNK d   0      10.766  -6.921   4.647  0.00  0.00     0.139 C 
ATOM     52  O   UNK d   0      10.333  -8.091   4.774  0.00  0.00    -0.650 OA
BRANCH  51  53
ATOM     53  O   UNK d   0      11.003  -6.457   3.363  0.00  0.00    -0.776 OA
ATOM     54  H   UNK d   0      10.515  -5.633   3.058  0.00  0.00     0.167 HD
ENDBRANCH  51  53
ENDBRANCH  50  51
ENDBRANCH  49  50
ENDBRANCH  24  49
BRANCH  21  55
ATOM     55  C   UNK d   0      12.575  -2.325   5.108  0.00  0.00     0.151 C 
BRANCH  55  56
ATOM     56  C   UNK d   0      11.309  -2.196   4.370  0.00  0.00     0.143 C 
ATOM     57  O   UNK d   0      10.633  -1.148   4.368  0.00  0.00    -0.650 OA
BRANCH  56  58
ATOM     58  O   UNK d   0      10.863  -3.301   3.648  0.00  0.00    -0.776 OA
ATOM     59  H   UNK d   0       9.879  -3.570   3.827  0.00  0.00     0.167 HD
ENDBRANCH  56  58
ENDBRANCH  55  56
ENDBRANCH  21  55
BRANCH  18  60
ATOM     60  C   UNK d   0      14.130   1.509   8.527  0.00  0.00     0.151 C 
BRANCH  60  61
ATOM     61  C   UNK d   0      15.466   0.957   8.797  0.00  0.00     0.143 C 
ATOM     62  O   UNK d   0      16.548   1.524   8.645  0.00  0.00    -0.650 OA
BRANCH  61  63
ATOM     63  O   UNK d   0      15.482  -0.373   9.283  0.00  0.00    -0.776 OA
ATOM     64  H   UNK d   0      15.888  -0.594  10.175  0.00  0.00     0.167 HD
ENDBRANCH  61  63
ENDBRANCH  60  61
ENDBRANCH  18  60
BRANCH  14  65
ATOM     65  C   UNK d   0      13.738   2.384  11.407  0.00  0.00     0.052 C 
BRANCH  65  66
ATOM     66  C   UNK d   0      12.852   3.574  11.513  0.00  0.00     0.115 C 
BRANCH  66  67
ATOM     67  C   UNK d   0      11.956   3.893  10.437  0.00  0.00     0.139 C 
ATOM     68  O   UNK d   0      10.748   3.454  10.494  0.00  0.00    -0.650 OA
BRANCH  67  69
ATOM     69  O   UNK d   0      12.229   4.642   9.293  0.00  0.00    -0.776 OA
ATOM     70  H   UNK d   0      13.194   4.582   8.937  0.00  0.00     0.167 HD
ENDBRANCH  67  69
ENDBRANCH  66  67
ENDBRANCH  65  66
ENDBRANCH  14  65
ENDBRANCH   6   7
ENDBRANCH   5   6
ENDBRANCH   2   5
TORSDOF 28
ENDMDL
MODEL 19
REMARK VINA RESULT:      -8.5     29.417     33.125
REMARK  28 active torsions:
REMARK  status: ('A' for Active; 'I' for Inactive)
REMARK    1  A    between atoms: C_2  and  O_3 
REMARK    2  A    between atoms: C_2  and  C_4 
REMARK    3  A    between atoms: C_4  and  C_5 
REMARK    4  A    between atoms: C_5  and  C_6 
REMARK    5  A    between atoms: C_7  and  C_8 
REMARK    6  A    between atoms: C_8  and  C_9 
REMARK    7  A    between atoms: C_9  and  O_11 
REMARK    8  A    between atoms: C_28  and  C_29 
REMARK    9  A    between atoms: C_29  and  C_30 
REMARK   10  A    between atoms: C_30  and  O_32 
REMARK   11  A    between atoms: C_33  and  C_34 
REMARK   12  A    between atoms: C_34  and  C_35 
REMARK   13  A    between atoms: C_35  and  C_36 
REMARK   14  A    between atoms: C_36  and  O_38 
REMARK   15  A    between atoms: C_39  and  C_40 
REMARK   16  A    between atoms: C_40  and  C_41 
REMARK   17  A    between atoms: C_41  and  C_42 
REMARK   18  A    between atoms: C_42  and  O_44 
REMARK   19  A    between atoms: C_45  and  C_46 
REMARK   20  A    between atoms: C_46  and  C_47 
REMARK   21  A    between atoms: C_47  and  O_49 
REMARK   22  A    between atoms: C_50  and  C_51 
REMARK   23  A    between atoms: C_51  and  C_52 
REMARK   24  A    between atoms: C_52  and  O_54 
REMARK   25  A    between atoms: C_55  and  C_56 
REMARK   26  A    between atoms: C_56  and  C_57 
REMARK   27  A    between atoms: C_57  and  C_58 
REMARK   28  A    between atoms: C_58  and  O_60 
ROOT
ATOM      1  O   UNK d   0     -16.300   6.033  -7.044  0.00  0.00    -0.650 OA
ATOM      2  C   UNK d   0     -15.352   5.587  -6.361  0.00  0.00     0.139 C 
ENDROOT
BRANCH   2   3
ATOM      3  O   UNK d   0     -15.393   5.705  -4.993  0.00  0.00    -0.776 OA
ATOM      4  H   UNK d   0     -16.279   5.649  -4.485  0.00  0.00     0.167 HD
ENDBRANCH   2   3
BRANCH   2   5
ATOM      5  C   UNK d   0     -14.191   4.934  -7.029  0.00  0.00     0.115 C 
BRANCH   5   6
ATOM      6  C   UNK d   0     -13.481   4.025  -6.063  0.00  0.00     0.052 C 
BRANCH   6   7
ATOM      7  C   UNK d   0     -13.973   2.600  -6.137  0.00  0.00    -0.020 A 
ATOM      8  C   UNK d   0     -14.538   1.900  -5.186  0.00  0.00    -0.011 A 
ATOM      9  C   UNK d   0     -14.831   0.580  -5.720  0.00  0.00     0.067 A 
ATOM     10  C   UNK d   0     -15.432  -0.595  -5.242  0.00  0.00     0.062 C 
ATOM     11  N   UNK d   0     -14.405   0.562  -7.000  0.00  0.00    -0.248 NA
ATOM     12  C   UNK d   0     -15.880  -1.685  -5.996  0.00  0.00     0.041 A 
ATOM     13  N   UNK d   0     -15.324  -2.328  -7.040  0.00  0.00    -0.355 N 
ATOM     14  C   UNK d   0     -17.145  -2.232  -5.716  0.00  0.00    -0.022 A 
ATOM     15  C   UNK d   0     -16.208  -3.264  -7.435  0.00  0.00     0.042 A 
ATOM     16  H   UNK d   0     -14.320  -2.137  -7.477  0.00  0.00     0.166 HD
ATOM     17  C   UNK d   0     -16.132  -4.211  -8.476  0.00  0.00     0.062 C 
ATOM     18  C   UNK d   0     -17.362  -3.234  -6.628  0.00  0.00    -0.013 A 
ATOM     19  C   UNK d   0     -15.710  -4.038  -9.770  0.00  0.00     0.067 A 
ATOM     20  N   UNK d   0     -15.102  -2.884 -10.058  0.00  0.00    -0.248 NA
ATOM     21  C   UNK d   0     -15.760  -4.814 -10.997  0.00  0.00    -0.011 A 
ATOM     22  C   UNK d   0     -14.752  -2.849 -11.386  0.00  0.00     0.066 A 
ATOM     23  C   UNK d   0     -14.075  -1.717 -11.815  0.00  0.00     0.062 C 
ATOM     24  C   UNK d   0     -15.201  -4.111 -11.940  0.00  0.00    -0.020 A 
ATOM     25  C   UNK d   0     -13.623  -0.639 -11.039  0.00  0.00     0.041 A 
ATOM     26  N   UNK d   0     -14.182   0.011 -10.010  0.00  0.00    -0.355 N 
ATOM     27  C   UNK d   0     -12.351  -0.093 -11.318  0.00  0.00    -0.022 A 
ATOM     28  C   UNK d   0     -13.306   0.951  -9.620  0.00  0.00     0.042 A 
ATOM     29  H   UNK d   0     -15.196  -0.175  -9.579  0.00  0.00     0.166 HD
ATOM     30  C   UNK d   0     -13.373   1.904  -8.593  0.00  0.00     0.062 C 
ATOM     31  C   UNK d   0     -12.142   0.913 -10.425  0.00  0.00    -0.013 A 
ATOM     32  C   UNK d   0     -13.879   1.747  -7.312  0.00  0.00     0.066 A 
BRANCH   8  33
ATOM     33  C   UNK d   0     -14.831   2.348  -3.812  0.00  0.00     0.151 C 
BRANCH  33  34
ATOM     34  C   UNK d   0     -13.709   2.114  -2.885  0.00  0.00     0.143 C 
ATOM     35  O   UNK d   0     -12.910   3.021  -2.610  0.00  0.00    -0.650 OA
BRANCH  34  36
ATOM     36  O   UNK d   0     -13.548   0.870  -2.320  0.00  0.00    -0.776 OA
ATOM     37  H   UNK d   0     -12.614   0.458  -2.191  0.00  0.00     0.167 HD
ENDBRANCH  34  36
ENDBRANCH  33  34
ENDBRANCH   8  33
BRANCH  31  38
ATOM     38  C   UNK d   0     -10.908   1.778 -10.330  0.00  0.00     0.151 C 
BRANCH  38  39
ATOM     39  C   UNK d   0      -9.743   1.048  -9.876  0.00  0.00     0.143 C 
ATOM     40  O   UNK d   0      -9.828   0.061  -9.125  0.00  0.00    -0.650 OA
BRANCH  39  41
ATOM     41  O   UNK d   0      -8.475   1.454 -10.289  0.00  0.00    -0.776 OA
ATOM     42  H   UNK d   0      -7.834   0.718 -10.602  0.00  0.00     0.167 HD
ENDBRANCH  39  41
ENDBRANCH  38  39
ENDBRANCH  31  38
BRANCH  27  43
ATOM     43  C   UNK d   0     -11.353  -0.482 -12.379  0.00  0.00     0.052 C 
BRANCH  43  44
ATOM     44  C   UNK d   0     -11.625   0.149 -13.706  0.00  0.00     0.115 C 
BRANCH  44  45
ATOM     45  C   UNK d   0     -10.454   1.010 -14.014  0.00  0.00     0.139 C 
ATOM     46  O   UNK d   0     -10.551   1.823 -14.967  0.00  0.00    -0.650 OA
BRANCH  45  47
ATOM     47  O   UNK d   0      -9.277   0.956 -13.299  0.00  0.00    -0.776 OA
ATOM     48  H   UNK d   0      -9.198   0.480 -12.385  0.00  0.00     0.167 HD
ENDBRANCH  45  47
ENDBRANCH  44  45
ENDBRANCH  43  44
ENDBRANCH  27  43
BRANCH  24  49
ATOM     49  C   UNK d   0     -15.003  -4.534 -13.337  0.00  0.00     0.052 C 
BRANCH  49  50
ATOM     50  C   UNK d   0     -13.577  -4.292 -13.761  0.00  0.00     0.115 C 
BRANCH  50  51
ATOM     51  C   UNK d   0     -12.634  -5.388 -13.579  0.00  0.00     0.139 C 
ATOM     52  O   UNK d   0     -11.398  -5.248 -13.731  0.00  0.00    -0.650 OA
BRANCH  51  53
ATOM     53  O   UNK d   0     -13.102  -6.644 -13.225  0.00  0.00    -0.776 OA
ATOM     54  H   UNK d   0     -14.002  -6.930 -13.568  0.00  0.00     0.167 HD
ENDBRANCH  51  53
ENDBRANCH  50  51
ENDBRANCH  49  50
ENDBRANCH  24  49
BRANCH  21  55
ATOM     55  C   UNK d   0     -16.356  -6.178 -11.099  0.00  0.00     0.151 C 
BRANCH  55  56
ATOM     56  C   UNK d   0     -15.522  -7.195 -10.440  0.00  0.00     0.143 C 
ATOM     57  O   UNK d   0     -14.299  -7.308 -10.655  0.00  0.00    -0.650 OA
BRANCH  56  58
ATOM     58  O   UNK d   0     -16.143  -8.061  -9.541  0.00  0.00    -0.776 OA
ATOM     59  H   UNK d   0     -16.556  -7.603  -8.709  0.00  0.00     0.167 HD
ENDBRANCH  56  58
ENDBRANCH  55  56
ENDBRANCH  21  55
BRANCH  18  60
ATOM     60  C   UNK d   0     -18.605  -4.086  -6.698  0.00  0.00     0.151 C 
BRANCH  60  61
ATOM     61  C   UNK d   0     -18.220  -5.406  -6.176  0.00  0.00     0.143 C 
ATOM     62  O   UNK d   0     -18.244  -6.478  -6.780  0.00  0.00    -0.650 OA
BRANCH  61  63
ATOM     63  O   UNK d   0     -17.779  -5.416  -4.831  0.00  0.00    -0.776 OA
ATOM     64  H   UNK d   0     -16.878  -5.050  -4.578  0.00  0.00     0.167 HD
ENDBRANCH  61  63
ENDBRANCH  60  61
ENDBRANCH  18  60
BRANCH  14  65
ATOM     65  C   UNK d   0     -18.112  -1.949  -4.601  0.00  0.00     0.052 C 
BRANCH  65  66
ATOM     66  C   UNK d   0     -19.144  -0.942  -4.968  0.00  0.00     0.115 C 
BRANCH  66  67
ATOM     67  C   UNK d   0     -20.011  -0.410  -3.955  0.00  0.00     0.139 C 
ATOM     68  O   UNK d   0     -21.060  -1.078  -3.632  0.00  0.00    -0.650 OA
BRANCH  67  69
ATOM     69  O   UNK d   0     -19.863   0.782  -3.246  0.00  0.00    -0.776 OA
ATOM     70  H   UNK d   0     -18.921   0.966  -2.870  0.00  0.00     0.167 HD
ENDBRANCH  67  69
ENDBRANCH  66  67
ENDBRANCH  65  66
ENDBRANCH  14  65
ENDBRANCH   6   7
ENDBRANCH   5   6
ENDBRANCH   2   5
TORSDOF 28
ENDMDL
MODEL 20
REMARK VINA RESULT:      -8.5      1.969      7.830
REMARK  28 active torsions:
REMARK  status: ('A' for Active; 'I' for Inactive)
REMARK    1  A    between atoms: C_2  and  O_3 
REMARK    2  A    between atoms: C_2  and  C_4 
REMARK    3  A    between atoms: C_4  and  C_5 
REMARK    4  A    between atoms: C_5  and  C_6 
REMARK    5  A    between atoms: C_7  and  C_8 
REMARK    6  A    between atoms: C_8  and  C_9 
REMARK    7  A    between atoms: C_9  and  O_11 
REMARK    8  A    between atoms: C_28  and  C_29 
REMARK    9  A    between atoms: C_29  and  C_30 
REMARK   10  A    between atoms: C_30  and  O_32 
REMARK   11  A    between atoms: C_33  and  C_34 
REMARK   12  A    between atoms: C_34  and  C_35 
REMARK   13  A    between atoms: C_35  and  C_36 
REMARK   14  A    between atoms: C_36  and  O_38 
REMARK   15  A    between atoms: C_39  and  C_40 
REMARK   16  A    between atoms: C_40  and  C_41 
REMARK   17  A    between atoms: C_41  and  C_42 
REMARK   18  A    between atoms: C_42  and  O_44 
REMARK   19  A    between atoms: C_45  and  C_46 
REMARK   20  A    between atoms: C_46  and  C_47 
REMARK   21  A    between atoms: C_47  and  O_49 
REMARK   22  A    between atoms: C_50  and  C_51 
REMARK   23  A    between atoms: C_51  and  C_52 
REMARK   24  A    between atoms: C_52  and  O_54 
REMARK   25  A    between atoms: C_55  and  C_56 
REMARK   26  A    between atoms: C_56  and  C_57 
REMARK   27  A    between atoms: C_57  and  C_58 
REMARK   28  A    between atoms: C_58  and  O_60 
ROOT
ATOM      1  O   UNK d   0      13.326   2.079  12.596  0.00  0.00    -0.650 OA
ATOM      2  C   UNK d   0      12.158   2.066  13.046  0.00  0.00     0.139 C 
ENDROOT
BRANCH   2   3
ATOM      3  O   UNK d   0      11.210   2.887  12.483  0.00  0.00    -0.776 OA
ATOM      4  H   UNK d   0      10.939   3.764  12.931  0.00  0.00     0.167 HD
ENDBRANCH   2   3
BRANCH   2   5
ATOM      5  C   UNK d   0      11.804   1.169  14.182  0.00  0.00     0.115 C 
BRANCH   5   6
ATOM      6  C   UNK d   0      12.879   0.135  14.379  0.00  0.00     0.052 C 
BRANCH   6   7
ATOM      7  C   UNK d   0      12.372  -1.275  14.190  0.00  0.00    -0.020 A 
ATOM      8  C   UNK d   0      11.959  -2.105  15.114  0.00  0.00    -0.011 A 
ATOM      9  C   UNK d   0      11.576  -3.345  14.458  0.00  0.00     0.067 A 
ATOM     10  C   UNK d   0      11.051  -4.582  14.861  0.00  0.00     0.062 C 
ATOM     11  N   UNK d   0      11.794  -3.183  13.136  0.00  0.00    -0.248 NA
ATOM     12  C   UNK d   0      10.481  -5.567  14.045  0.00  0.00     0.041 A 
ATOM     13  N   UNK d   0      10.860  -6.054  12.848  0.00  0.00    -0.355 N 
ATOM     14  C   UNK d   0       9.273  -6.166  14.444  0.00  0.00    -0.022 A 
ATOM     15  C   UNK d   0       9.919  -6.941  12.474  0.00  0.00     0.042 A 
ATOM     16  H   UNK d   0      11.784  -5.791  12.288  0.00  0.00     0.166 HD
ATOM     17  C   UNK d   0       9.822  -7.736  11.315  0.00  0.00     0.062 C 
ATOM     18  C   UNK d   0       8.907  -7.038  13.449  0.00  0.00    -0.013 A 
ATOM     19  C   UNK d   0      10.036  -7.383  10.007  0.00  0.00     0.067 A 
ATOM     20  N   UNK d   0      10.598  -6.192   9.786  0.00  0.00    -0.248 NA
ATOM     21  C   UNK d   0       9.787  -7.986   8.708  0.00  0.00    -0.011 A 
ATOM     22  C   UNK d   0      10.734  -5.972   8.437  0.00  0.00     0.066 A 
ATOM     23  C   UNK d   0      11.342  -4.782   8.064  0.00  0.00     0.062 C 
ATOM     24  C   UNK d   0      10.194  -7.154   7.793  0.00  0.00    -0.020 A 
ATOM     25  C   UNK d   0      11.918  -3.813   8.899  0.00  0.00     0.041 A 
ATOM     26  N   UNK d   0      11.534  -3.317  10.082  0.00  0.00    -0.355 N 
ATOM     27  C   UNK d   0      13.134  -3.215   8.500  0.00  0.00    -0.022 A 
ATOM     28  C   UNK d   0      12.467  -2.426  10.453  0.00  0.00     0.042 A 
ATOM     29  H   UNK d   0      10.600  -3.575  10.638  0.00  0.00     0.166 HD
ATOM     30  C   UNK d   0      12.571  -1.622  11.599  0.00  0.00     0.062 C 
ATOM     31  C   UNK d   0      13.489  -2.337   9.478  0.00  0.00    -0.013 A 
ATOM     32  C   UNK d   0      12.272  -1.958  12.909  0.00  0.00     0.066 A 
BRANCH   8  33
ATOM     33  C   UNK d   0      11.891  -1.852  16.565  0.00  0.00     0.151 C 
BRANCH  33  34
ATOM     34  C   UNK d   0      10.631  -1.205  16.973  0.00  0.00     0.143 C 
ATOM     35  O   UNK d   0       9.550  -1.804  16.884  0.00  0.00    -0.650 OA
BRANCH  34  36
ATOM     36  O   UNK d   0      10.659   0.083  17.457  0.00  0.00    -0.776 OA
ATOM     37  H   UNK d   0      10.191   0.851  16.957  0.00  0.00     0.167 HD
ENDBRANCH  34  36
ENDBRANCH  33  34
ENDBRANCH   8  33
BRANCH  31  38
ATOM     38  C   UNK d   0      14.729  -1.474   9.494  0.00  0.00     0.151 C 
BRANCH  38  39
ATOM     39  C   UNK d   0      15.834  -2.093  10.193  0.00  0.00     0.143 C 
ATOM     40  O   UNK d   0      16.521  -2.997   9.685  0.00  0.00    -0.650 OA
BRANCH  39  41
ATOM     41  O   UNK d   0      16.153  -1.670  11.484  0.00  0.00    -0.776 OA
ATOM     42  H   UNK d   0      17.102  -1.872  11.814  0.00  0.00     0.167 HD
ENDBRANCH  39  41
ENDBRANCH  38  39
ENDBRANCH  31  38
BRANCH  27  43
ATOM     43  C   UNK d   0      13.949  -3.443   7.252  0.00  0.00     0.052 C 
BRANCH  43  44
ATOM     44  C   UNK d   0      13.610  -2.498   6.145  0.00  0.00     0.115 C 
BRANCH  44  45
ATOM     45  C   UNK d   0      13.747  -3.262   4.877  0.00  0.00     0.139 C 
ATOM     46  O   UNK d   0      14.368  -2.726   3.927  0.00  0.00    -0.650 OA
BRANCH  45  47
ATOM     47  O   UNK d   0      13.228  -4.528   4.708  0.00  0.00    -0.776 OA
ATOM     48  H   UNK d   0      13.760  -5.385   4.929  0.00  0.00     0.167 HD
ENDBRANCH  45  47
ENDBRANCH  44  45
ENDBRANCH  43  44
ENDBRANCH  27  43
BRANCH  24  49
ATOM     49  C   UNK d   0      10.166  -7.380   6.338  0.00  0.00     0.052 C 
BRANCH  49  50
ATOM     50  C   UNK d   0      11.561  -7.610   5.816  0.00  0.00     0.115 C 
BRANCH  50  51
ATOM     51  C   UNK d   0      11.774  -7.425   4.387  0.00  0.00     0.139 C 
ATOM     52  O   UNK d   0      12.903  -7.530   3.853  0.00  0.00    -0.650 OA
BRANCH  51  53
ATOM     53  O   UNK d   0      10.699  -7.118   3.566  0.00  0.00    -0.776 OA
ATOM     54  H   UNK d   0      10.189  -6.272   3.748  0.00  0.00     0.167 HD
ENDBRANCH  51  53
ENDBRANCH  50  51
ENDBRANCH  49  50
ENDBRANCH  24  49
BRANCH  21  55
ATOM     55  C   UNK d   0       9.172  -9.333   8.517  0.00  0.00     0.151 C 
BRANCH  55  56
ATOM     56  C   UNK d   0       7.706  -9.292   8.630  0.00  0.00     0.143 C 
ATOM     57  O   UNK d   0       6.992  -8.587   7.890  0.00  0.00    -0.650 OA
BRANCH  56  58
ATOM     58  O   UNK d   0       7.109 -10.081   9.611  0.00  0.00    -0.776 OA
ATOM     59  H   UNK d   0       6.627 -10.927   9.257  0.00  0.00     0.167 HD
ENDBRANCH  56  58
ENDBRANCH  55  56
ENDBRANCH  21  55
BRANCH  18  60
ATOM     60  C   UNK d   0       7.663  -7.890  13.461  0.00  0.00     0.151 C 
BRANCH  60  61
ATOM     61  C   UNK d   0       7.987  -9.067  14.281  0.00  0.00     0.143 C 
ATOM     62  O   UNK d   0       7.288  -9.578  15.157  0.00  0.00    -0.650 OA
BRANCH  61  63
ATOM     63  O   UNK d   0       9.246  -9.658  14.015  0.00  0.00    -0.776 OA
ATOM     64  H   UNK d   0       9.598 -10.407  14.585  0.00  0.00     0.167 HD
ENDBRANCH  61  63
ENDBRANCH  60  61
ENDBRANCH  18  60
BRANCH  14  65
ATOM     65  C   UNK d   0       8.497  -6.050  15.726  0.00  0.00     0.052 C 
BRANCH  65  66
ATOM     66  C   UNK d   0       9.301  -6.402  16.926  0.00  0.00     0.115 C 
BRANCH  66  67
ATOM     67  C   UNK d   0      10.022  -7.644  16.961  0.00  0.00     0.139 C 
ATOM     68  O   UNK d   0      11.297  -7.618  16.796  0.00  0.00    -0.650 OA
BRANCH  67  69
ATOM     69  O   UNK d   0       9.507  -8.924  17.156  0.00  0.00    -0.776 OA
ATOM     70  H   UNK d   0       8.857  -9.030  17.949  0.00  0.00     0.167 HD
ENDBRANCH  67  69
ENDBRANCH  66  67
ENDBRANCH  65  66
ENDBRANCH  14  65
ENDBRANCH   6   7
ENDBRANCH   5   6
ENDBRANCH   2   5
TORSDOF 28
ENDMDL
