MODEL 1
REMARK VINA RESULT:      -9.9      0.000      0.000
REMARK  16 active torsions:
REMARK  status: ('A' for Active; 'I' for Inactive)
REMARK    1  A    between atoms: C_6  and  C_7 
REMARK    2  A    between atoms: C_7  and  C_8 
REMARK    3  A    between atoms: C_8  and  C_9 
REMARK    4  A    between atoms: C_9  and  O_11 
REMARK    5  A    between atoms: C_16  and  C_17 
REMARK    6  A    between atoms: C_17  and  C_18 
REMARK    7  A    between atoms: C_18  and  C_19 
REMARK    8  A    between atoms: C_19  and  O_21 
REMARK    9  A    between atoms: C_28  and  C_29 
REMARK   10  A    between atoms: C_29  and  C_30 
REMARK   11  A    between atoms: C_30  and  C_31 
REMARK   12  A    between atoms: C_31  and  O_33 
REMARK   13  A    between atoms: C_42  and  C_43 
REMARK   14  A    between atoms: C_43  and  C_44 
REMARK   15  A    between atoms: C_44  and  C_45 
REMARK   16  A    between atoms: C_45  and  O_47 
ROOT
HETATM    1  C   UNK     0     -20.904 -17.513 -14.805  0.00  0.00     0.051 C 
HETATM    2  C   UNK     0     -20.978 -16.000 -14.844  0.00  0.00    -0.031 A 
HETATM    3  C   UNK     0     -21.019 -15.094 -13.796  0.00  0.00     0.021 A 
HETATM    4  N   UNK     0     -21.114 -13.841 -14.300  0.00  0.00    -0.361 N 
HETATM    5  C   UNK     0     -21.125 -13.928 -15.647  0.00  0.00     0.022 A 
HETATM    6  C   UNK     0     -21.044 -15.265 -16.021  0.00  0.00    -0.027 A 
HETATM    7  C   UNK     0     -21.122 -12.837 -16.671  0.00  0.00     0.115 C 
HETATM    8  C   UNK     0     -20.200 -11.659 -16.410  0.00  0.00     0.021 A 
HETATM    9  N   UNK     0     -18.985 -11.658 -15.838  0.00  0.00    -0.361 N 
HETATM   10  C   UNK     0     -18.575 -10.377 -15.727  0.00  0.00     0.022 A 
HETATM   11  C   UNK     0     -19.548  -9.529 -16.249  0.00  0.00    -0.027 A 
HETATM   12  C   UNK     0     -20.574 -10.330 -16.681  0.00  0.00    -0.031 A 
HETATM   13  C   UNK     0     -21.851  -9.843 -17.328  0.00  0.00     0.051 C 
HETATM   14  C   UNK     0     -17.280  -9.898 -15.078  0.00  0.00     0.115 C 
HETATM   15  C   UNK     0     -17.157 -10.261 -13.607  0.00  0.00     0.021 A 
HETATM   16  N   UNK     0     -17.184 -11.491 -13.059  0.00  0.00    -0.361 N 
HETATM   17  C   UNK     0     -17.117 -11.381 -11.731  0.00  0.00     0.022 A 
HETATM   18  C   UNK     0     -17.032 -10.014 -11.397  0.00  0.00    -0.027 A 
HETATM   19  C   UNK     0     -17.056  -9.324 -12.581  0.00  0.00    -0.031 A 
HETATM   20  C   UNK     0     -16.949  -7.813 -12.679  0.00  0.00     0.051 C 
HETATM   21  C   UNK     0     -17.184 -12.449 -10.663  0.00  0.00     0.115 C 
HETATM   22  C   UNK     0     -18.063 -13.648 -10.929  0.00  0.00     0.022 A 
HETATM   23  N   UNK     0     -19.274 -13.678 -11.500  0.00  0.00    -0.361 N 
HETATM   24  C   UNK     0     -19.629 -14.968 -11.672  0.00  0.00     0.021 A 
HETATM   25  C   UNK     0     -18.626 -15.787 -11.191  0.00  0.00    -0.031 A 
HETATM   26  C   UNK     0     -18.579 -17.300 -11.126  0.00  0.00     0.051 C 
HETATM   27  C   UNK     0     -17.613 -14.966 -10.710  0.00  0.00    -0.027 A 
HETATM   28  C   UNK     0     -20.871 -15.506 -12.359  0.00  0.00     0.115 C 
HETATM   29  H   UNK     0     -21.212 -12.906 -13.701  0.00  0.00     0.165 HD
HETATM   30  H   UNK     0     -18.393 -12.563 -15.558  0.00  0.00     0.165 HD
HETATM   31  H   UNK     0     -17.204 -12.459 -13.624  0.00  0.00     0.165 HD
HETATM   32  H   UNK     0     -19.910 -12.789 -11.747  0.00  0.00     0.165 HD
ENDROOT
BRANCH   6  33
HETATM   33  C   UNK     0     -21.027 -15.889 -17.393  0.00  0.00     0.051 C 
BRANCH  33  34
HETATM   34  C   UNK     0     -19.663 -15.751 -18.027  0.00  0.00     0.114 C 
BRANCH  34  35
HETATM   35  C   UNK     0     -19.852 -15.100 -19.355  0.00  0.00     0.139 C 
HETATM   36  O   UNK     0     -20.326 -15.759 -20.326  0.00  0.00    -0.650 OA
BRANCH  35  37
HETATM   37  O   UNK     0     -19.528 -13.770 -19.590  0.00  0.00    -0.776 OA
HETATM   38  H   UNK     0     -18.804 -13.296 -19.074  0.00  0.00     0.167 HD
ENDBRANCH  35  37
ENDBRANCH  34  35
ENDBRANCH  33  34
ENDBRANCH   6  33
BRANCH  27  39
HETATM   39  C   UNK     0     -16.389 -15.491 -10.045  0.00  0.00     0.051 C 
BRANCH  39  40
HETATM   40  C   UNK     0     -16.366 -15.553  -8.584  0.00  0.00     0.114 C 
BRANCH  40  41
HETATM   41  C   UNK     0     -16.857 -14.473  -7.759  0.00  0.00     0.139 C 
HETATM   42  O   UNK     0     -16.160 -13.512  -7.405  0.00  0.00    -0.650 OA
BRANCH  41  43
HETATM   43  O   UNK     0     -18.211 -14.499  -7.319  0.00  0.00    -0.776 OA
HETATM   44  H   UNK     0     -18.563 -15.424  -7.103  0.00  0.00     0.167 HD
ENDBRANCH  41  43
ENDBRANCH  40  41
ENDBRANCH  39  40
ENDBRANCH  27  39
BRANCH  11  45
HETATM   45  C   UNK     0     -19.533  -8.028 -16.350  0.00  0.00     0.051 C 
BRANCH  45  46
HETATM   46  C   UNK     0     -19.798  -7.331 -15.065  0.00  0.00     0.114 C 
BRANCH  46  47
HETATM   47  C   UNK     0     -21.174  -6.763 -15.146  0.00  0.00     0.139 C 
HETATM   48  O   UNK     0     -22.138  -7.515 -14.941  0.00  0.00    -0.650 OA
BRANCH  47  49
HETATM   49  O   UNK     0     -21.372  -5.438 -15.442  0.00  0.00    -0.776 OA
HETATM   50  H   UNK     0     -22.116  -5.127 -16.077  0.00  0.00     0.167 HD
ENDBRANCH  47  49
ENDBRANCH  46  47
ENDBRANCH  45  46
ENDBRANCH  11  45
BRANCH  18  51
HETATM   51  C   UNK     0     -16.912  -9.402 -10.026  0.00  0.00     0.051 C 
BRANCH  51  52
HETATM   52  C   UNK     0     -15.451  -9.542  -9.623  0.00  0.00     0.114 C 
BRANCH  52  53
HETATM   53  C   UNK     0     -15.289  -9.609  -8.158  0.00  0.00     0.139 C 
HETATM   54  O   UNK     0     -15.167  -8.565  -7.497  0.00  0.00    -0.650 OA
BRANCH  53  55
HETATM   55  O   UNK     0     -15.271 -10.831  -7.531  0.00  0.00    -0.776 OA
HETATM   56  H   UNK     0     -16.064 -11.388  -7.313  0.00  0.00     0.167 HD
ENDBRANCH  53  55
ENDBRANCH  52  53
ENDBRANCH  51  52
ENDBRANCH  18  51
TORSDOF 16
ENDMDL
MODEL 2
REMARK VINA RESULT:      -9.6      1.819      6.773
REMARK  16 active torsions:
REMARK  status: ('A' for Active; 'I' for Inactive)
REMARK    1  A    between atoms: C_6  and  C_7 
REMARK    2  A    between atoms: C_7  and  C_8 
REMARK    3  A    between atoms: C_8  and  C_9 
REMARK    4  A    between atoms: C_9  and  O_11 
REMARK    5  A    between atoms: C_16  and  C_17 
REMARK    6  A    between atoms: C_17  and  C_18 
REMARK    7  A    between atoms: C_18  and  C_19 
REMARK    8  A    between atoms: C_19  and  O_21 
REMARK    9  A    between atoms: C_28  and  C_29 
REMARK   10  A    between atoms: C_29  and  C_30 
REMARK   11  A    between atoms: C_30  and  C_31 
REMARK   12  A    between atoms: C_31  and  O_33 
REMARK   13  A    between atoms: C_42  and  C_43 
REMARK   14  A    between atoms: C_43  and  C_44 
REMARK   15  A    between atoms: C_44  and  C_45 
REMARK   16  A    between atoms: C_45  and  O_47 
ROOT
HETATM    1  C   UNK     0     -18.880  -8.592 -16.855  0.00  0.00     0.051 C 
HETATM    2  C   UNK     0     -18.935 -10.082 -16.590  0.00  0.00    -0.031 A 
HETATM    3  C   UNK     0     -18.010 -10.898 -15.958  0.00  0.00     0.021 A 
HETATM    4  N   UNK     0     -18.463 -12.174 -15.975  0.00  0.00    -0.361 N 
HETATM    5  C   UNK     0     -19.660 -12.188 -16.597  0.00  0.00     0.022 A 
HETATM    6  C   UNK     0     -19.985 -10.896 -16.997  0.00  0.00    -0.027 A 
HETATM    7  C   UNK     0     -20.617 -13.322 -16.795  0.00  0.00     0.115 C 
HETATM    8  C   UNK     0     -20.833 -14.247 -15.610  0.00  0.00     0.021 A 
HETATM    9  N   UNK     0     -20.862 -13.939 -14.304  0.00  0.00    -0.361 N 
HETATM   10  C   UNK     0     -20.989 -15.088 -13.606  0.00  0.00     0.022 A 
HETATM   11  C   UNK     0     -21.053 -16.163 -14.487  0.00  0.00    -0.027 A 
HETATM   12  C   UNK     0     -20.956 -15.641 -15.751  0.00  0.00    -0.031 A 
HETATM   13  C   UNK     0     -20.985 -16.442 -17.033  0.00  0.00     0.051 C 
HETATM   14  C   UNK     0     -21.001 -15.222 -12.086  0.00  0.00     0.115 C 
HETATM   15  C   UNK     0     -19.726 -14.736 -11.415  0.00  0.00     0.021 A 
HETATM   16  N   UNK     0     -19.181 -13.507 -11.479  0.00  0.00    -0.361 N 
HETATM   17  C   UNK     0     -18.026 -13.504 -10.810  0.00  0.00     0.022 A 
HETATM   18  C   UNK     0     -17.812 -14.791 -10.277  0.00  0.00    -0.027 A 
HETATM   19  C   UNK     0     -18.885 -15.552 -10.661  0.00  0.00    -0.031 A 
HETATM   20  C   UNK     0     -19.073 -17.006 -10.266  0.00  0.00     0.051 C 
HETATM   21  C   UNK     0     -17.003 -12.404 -10.643  0.00  0.00     0.115 C 
HETATM   22  C   UNK     0     -16.808 -11.450 -11.798  0.00  0.00     0.022 A 
HETATM   23  N   UNK     0     -16.780 -11.727 -13.108  0.00  0.00    -0.361 N 
HETATM   24  C   UNK     0     -16.731 -10.563 -13.786  0.00  0.00     0.021 A 
HETATM   25  C   UNK     0     -16.718  -9.511 -12.891  0.00  0.00    -0.031 A 
HETATM   26  C   UNK     0     -16.628  -8.024 -13.168  0.00  0.00     0.051 C 
HETATM   27  C   UNK     0     -16.766 -10.053 -11.612  0.00  0.00    -0.027 A 
HETATM   28  C   UNK     0     -16.775 -10.362 -15.291  0.00  0.00     0.115 C 
HETATM   29  H   UNK     0     -17.916 -13.063 -15.583  0.00  0.00     0.165 HD
HETATM   30  H   UNK     0     -20.843 -12.908 -13.874  0.00  0.00     0.165 HD
HETATM   31  H   UNK     0     -19.644 -12.609 -11.966  0.00  0.00     0.165 HD
HETATM   32  H   UNK     0     -16.750 -12.750 -13.565  0.00  0.00     0.165 HD
ENDROOT
BRANCH   6  33
HETATM   33  C   UNK     0     -21.199 -10.384 -17.729  0.00  0.00     0.051 C 
BRANCH  33  34
HETATM   34  C   UNK     0     -22.447 -10.585 -16.903  0.00  0.00     0.114 C 
BRANCH  34  35
HETATM   35  C   UNK     0     -22.358  -9.667 -15.731  0.00  0.00     0.139 C 
HETATM   36  O   UNK     0     -22.521  -8.421 -15.883  0.00  0.00    -0.650 OA
BRANCH  35  37
HETATM   37  O   UNK     0     -22.103 -10.120 -14.442  0.00  0.00    -0.776 OA
HETATM   38  H   UNK     0     -21.167 -10.297 -14.114  0.00  0.00     0.167 HD
ENDBRANCH  35  37
ENDBRANCH  34  35
ENDBRANCH  33  34
ENDBRANCH   6  33
BRANCH  27  39
HETATM   39  C   UNK     0     -16.697  -9.225 -10.377  0.00  0.00     0.051 C 
BRANCH  39  40
HETATM   40  C   UNK     0     -15.722  -9.591  -9.350  0.00  0.00     0.114 C 
BRANCH  40  41
HETATM   41  C   UNK     0     -16.120 -10.095  -8.055  0.00  0.00     0.139 C 
HETATM   42  O   UNK     0     -17.298 -10.161  -7.679  0.00  0.00    -0.650 OA
BRANCH  41  43
HETATM   43  O   UNK     0     -15.116 -10.545  -7.151  0.00  0.00    -0.776 OA
HETATM   44  H   UNK     0     -14.350  -9.895  -7.019  0.00  0.00     0.167 HD
ENDBRANCH  41  43
ENDBRANCH  40  41
ENDBRANCH  39  40
ENDBRANCH  27  39
BRANCH  11  45
HETATM   45  C   UNK     0     -21.203 -17.628 -14.175  0.00  0.00     0.051 C 
BRANCH  45  46
HETATM   46  C   UNK     0     -20.068 -18.204 -13.409  0.00  0.00     0.114 C 
BRANCH  46  47
HETATM   47  C   UNK     0     -19.787 -19.552 -13.982  0.00  0.00     0.139 C 
HETATM   48  O   UNK     0     -20.272 -19.839 -15.085  0.00  0.00    -0.650 OA
BRANCH  47  49
HETATM   49  O   UNK     0     -19.011 -20.456 -13.302  0.00  0.00    -0.776 OA
HETATM   50  H   UNK     0     -19.050 -21.463 -13.497  0.00  0.00     0.167 HD
ENDBRANCH  47  49
ENDBRANCH  46  47
ENDBRANCH  45  46
ENDBRANCH  11  45
BRANCH  18  51
HETATM   51  C   UNK     0     -16.660 -15.263  -9.429  0.00  0.00     0.051 C 
BRANCH  51  52
HETATM   52  C   UNK     0     -17.190 -15.362  -8.006  0.00  0.00     0.114 C 
BRANCH  52  53
HETATM   53  C   UNK     0     -17.157 -14.059  -7.315  0.00  0.00     0.139 C 
HETATM   54  O   UNK     0     -16.182 -13.304  -7.458  0.00  0.00    -0.650 OA
BRANCH  53  55
HETATM   55  O   UNK     0     -18.208 -13.689  -6.511  0.00  0.00    -0.776 OA
HETATM   56  H   UNK     0     -18.408 -12.769  -6.198  0.00  0.00     0.167 HD
ENDBRANCH  53  55
ENDBRANCH  52  53
ENDBRANCH  51  52
ENDBRANCH  18  51
TORSDOF 16
ENDMDL
MODEL 3
REMARK VINA RESULT:      -9.5      1.820      2.119
REMARK  16 active torsions:
REMARK  status: ('A' for Active; 'I' for Inactive)
REMARK    1  A    between atoms: C_6  and  C_7 
REMARK    2  A    between atoms: C_7  and  C_8 
REMARK    3  A    between atoms: C_8  and  C_9 
REMARK    4  A    between atoms: C_9  and  O_11 
REMARK    5  A    between atoms: C_16  and  C_17 
REMARK    6  A    between atoms: C_17  and  C_18 
REMARK    7  A    between atoms: C_18  and  C_19 
REMARK    8  A    between atoms: C_19  and  O_21 
REMARK    9  A    between atoms: C_28  and  C_29 
REMARK   10  A    between atoms: C_29  and  C_30 
REMARK   11  A    between atoms: C_30  and  C_31 
REMARK   12  A    between atoms: C_31  and  O_33 
REMARK   13  A    between atoms: C_42  and  C_43 
REMARK   14  A    between atoms: C_43  and  C_44 
REMARK   15  A    between atoms: C_44  and  C_45 
REMARK   16  A    between atoms: C_45  and  O_47 
ROOT
HETATM    1  C   UNK     0     -21.013 -17.468 -15.107  0.00  0.00     0.051 C 
HETATM    2  C   UNK     0     -20.938 -15.964 -15.282  0.00  0.00    -0.031 A 
HETATM    3  C   UNK     0     -20.992 -14.963 -14.325  0.00  0.00     0.021 A 
HETATM    4  N   UNK     0     -20.919 -13.760 -14.941  0.00  0.00    -0.361 N 
HETATM    5  C   UNK     0     -20.812 -13.972 -16.269  0.00  0.00     0.022 A 
HETATM    6  C   UNK     0     -20.823 -15.340 -16.518  0.00  0.00    -0.027 A 
HETATM    7  C   UNK     0     -20.608 -12.987 -17.377  0.00  0.00     0.115 C 
HETATM    8  C   UNK     0     -19.608 -11.873 -17.124  0.00  0.00     0.021 A 
HETATM    9  N   UNK     0     -18.458 -11.923 -16.434  0.00  0.00    -0.361 N 
HETATM   10  C   UNK     0     -17.940 -10.677 -16.391  0.00  0.00     0.022 A 
HETATM   11  C   UNK     0     -18.775  -9.802 -17.080  0.00  0.00    -0.027 A 
HETATM   12  C   UNK     0     -19.827 -10.549 -17.545  0.00  0.00    -0.031 A 
HETATM   13  C   UNK     0     -20.985 -10.016 -18.359  0.00  0.00     0.051 C 
HETATM   14  C   UNK     0     -16.672 -10.253 -15.656  0.00  0.00     0.115 C 
HETATM   15  C   UNK     0     -16.723 -10.485 -14.154  0.00  0.00     0.021 A 
HETATM   16  N   UNK     0     -16.919 -11.650 -13.510  0.00  0.00    -0.361 N 
HETATM   17  C   UNK     0     -16.966 -11.422 -12.195  0.00  0.00     0.022 A 
HETATM   18  C   UNK     0     -16.784 -10.043 -11.972  0.00  0.00    -0.027 A 
HETATM   19  C   UNK     0     -16.631  -9.467 -13.207  0.00  0.00    -0.031 A 
HETATM   20  C   UNK     0     -16.372  -7.987 -13.422  0.00  0.00     0.051 C 
HETATM   21  C   UNK     0     -17.234 -12.374 -11.052  0.00  0.00     0.115 C 
HETATM   22  C   UNK     0     -18.195 -13.513 -11.304  0.00  0.00     0.022 A 
HETATM   23  N   UNK     0     -19.344 -13.493 -11.991  0.00  0.00    -0.361 N 
HETATM   24  C   UNK     0     -19.802 -14.758 -12.088  0.00  0.00     0.021 A 
HETATM   25  C   UNK     0     -18.931 -15.612 -11.438  0.00  0.00    -0.031 A 
HETATM   26  C   UNK     0     -19.035 -17.110 -11.241  0.00  0.00     0.051 C 
HETATM   27  C   UNK     0     -17.894 -14.838 -10.928  0.00  0.00    -0.027 A 
HETATM   28  C   UNK     0     -21.020 -15.250 -12.850  0.00  0.00     0.115 C 
HETATM   29  H   UNK     0     -20.984 -12.768 -14.437  0.00  0.00     0.165 HD
HETATM   30  H   UNK     0     -17.983 -12.845 -16.018  0.00  0.00     0.165 HD
HETATM   31  H   UNK     0     -16.977 -12.662 -13.988  0.00  0.00     0.165 HD
HETATM   32  H   UNK     0     -19.867 -12.579 -12.377  0.00  0.00     0.165 HD
ENDROOT
BRANCH   6  33
HETATM   33  C   UNK     0     -20.737 -16.090 -17.823  0.00  0.00     0.051 C 
BRANCH  33  34
HETATM   34  C   UNK     0     -19.329 -16.053 -18.369  0.00  0.00     0.114 C 
BRANCH  34  35
HETATM   35  C   UNK     0     -19.061 -17.375 -19.004  0.00  0.00     0.139 C 
HETATM   36  O   UNK     0     -19.805 -17.797 -19.936  0.00  0.00    -0.650 OA
BRANCH  35  37
HETATM   37  O   UNK     0     -18.006 -18.192 -18.617  0.00  0.00    -0.776 OA
HETATM   38  H   UNK     0     -18.120 -19.183 -18.478  0.00  0.00     0.167 HD
ENDBRANCH  35  37
ENDBRANCH  34  35
ENDBRANCH  33  34
ENDBRANCH   6  33
BRANCH  27  39
HETATM   39  C   UNK     0     -16.794 -15.402 -10.100  0.00  0.00     0.051 C 
BRANCH  39  40
HETATM   40  C   UNK     0     -16.984 -15.476  -8.651  0.00  0.00     0.114 C 
BRANCH  40  41
HETATM   41  C   UNK     0     -17.051 -14.294  -7.822  0.00  0.00     0.139 C 
HETATM   42  O   UNK     0     -16.090 -13.535  -7.635  0.00  0.00    -0.650 OA
BRANCH  41  43
HETATM   43  O   UNK     0     -18.279 -13.970  -7.177  0.00  0.00    -0.776 OA
HETATM   44  H   UNK     0     -18.815 -14.773  -6.870  0.00  0.00     0.167 HD
ENDBRANCH  41  43
ENDBRANCH  40  41
ENDBRANCH  39  40
ENDBRANCH  27  39
BRANCH  11  45
HETATM   45  C   UNK     0     -18.608  -8.323 -17.307  0.00  0.00     0.051 C 
BRANCH  45  46
HETATM   46  C   UNK     0     -17.432  -7.967 -18.142  0.00  0.00     0.114 C 
BRANCH  46  47
HETATM   47  C   UNK     0     -17.909  -7.854 -19.550  0.00  0.00     0.139 C 
HETATM   48  O   UNK     0     -17.951  -8.879 -20.245  0.00  0.00    -0.650 OA
BRANCH  47  49
HETATM   49  O   UNK     0     -18.291  -6.642 -20.067  0.00  0.00    -0.776 OA
HETATM   50  H   UNK     0     -18.644  -5.883 -19.473  0.00  0.00     0.167 HD
ENDBRANCH  47  49
ENDBRANCH  46  47
ENDBRANCH  45  46
ENDBRANCH  11  45
BRANCH  18  51
HETATM   51  C   UNK     0     -16.735  -9.316 -10.653  0.00  0.00     0.051 C 
BRANCH  51  52
HETATM   52  C   UNK     0     -15.328  -9.513 -10.109  0.00  0.00     0.114 C 
BRANCH  52  53
HETATM   53  C   UNK     0     -14.481  -8.326 -10.335  0.00  0.00     0.139 C 
HETATM   54  O   UNK     0     -14.961  -7.188 -10.218  0.00  0.00    -0.650 OA
BRANCH  53  55
HETATM   55  O   UNK     0     -13.160  -8.490 -10.678  0.00  0.00    -0.776 OA
HETATM   56  H   UNK     0     -12.377  -8.254 -10.115  0.00  0.00     0.167 HD
ENDBRANCH  53  55
ENDBRANCH  52  53
ENDBRANCH  51  52
ENDBRANCH  18  51
TORSDOF 16
ENDMDL
MODEL 4
REMARK VINA RESULT:      -9.3      2.808      4.093
REMARK  16 active torsions:
REMARK  status: ('A' for Active; 'I' for Inactive)
REMARK    1  A    between atoms: C_6  and  C_7 
REMARK    2  A    between atoms: C_7  and  C_8 
REMARK    3  A    between atoms: C_8  and  C_9 
REMARK    4  A    between atoms: C_9  and  O_11 
REMARK    5  A    between atoms: C_16  and  C_17 
REMARK    6  A    between atoms: C_17  and  C_18 
REMARK    7  A    between atoms: C_18  and  C_19 
REMARK    8  A    between atoms: C_19  and  O_21 
REMARK    9  A    between atoms: C_28  and  C_29 
REMARK   10  A    between atoms: C_29  and  C_30 
REMARK   11  A    between atoms: C_30  and  C_31 
REMARK   12  A    between atoms: C_31  and  O_33 
REMARK   13  A    between atoms: C_42  and  C_43 
REMARK   14  A    between atoms: C_43  and  C_44 
REMARK   15  A    between atoms: C_44  and  C_45 
REMARK   16  A    between atoms: C_45  and  O_47 
ROOT
HETATM    1  C   UNK     0     -20.577 -12.934 -16.792  0.00  0.00     0.051 C 
HETATM    2  C   UNK     0     -19.986 -11.581 -16.452  0.00  0.00    -0.031 A 
HETATM    3  C   UNK     0     -19.976 -10.904 -15.243  0.00  0.00     0.021 A 
HETATM    4  N   UNK     0     -19.362  -9.708 -15.411  0.00  0.00    -0.361 N 
HETATM    5  C   UNK     0     -18.974  -9.612 -16.700  0.00  0.00     0.022 A 
HETATM    6  C   UNK     0     -19.351 -10.765 -17.380  0.00  0.00    -0.027 A 
HETATM    7  C   UNK     0     -18.178  -8.540 -17.377  0.00  0.00     0.115 C 
HETATM    8  C   UNK     0     -16.983  -7.994 -16.615  0.00  0.00     0.021 A 
HETATM    9  N   UNK     0     -16.140  -8.649 -15.802  0.00  0.00    -0.361 N 
HETATM   10  C   UNK     0     -15.286  -7.748 -15.270  0.00  0.00     0.022 A 
HETATM   11  C   UNK     0     -15.582  -6.480 -15.762  0.00  0.00    -0.027 A 
HETATM   12  C   UNK     0     -16.650  -6.628 -16.610  0.00  0.00    -0.031 A 
HETATM   13  C   UNK     0     -17.315  -5.510 -17.381  0.00  0.00     0.051 C 
HETATM   14  C   UNK     0     -14.196  -8.037 -14.242  0.00  0.00     0.115 C 
HETATM   15  C   UNK     0     -14.721  -8.593 -12.928  0.00  0.00     0.021 A 
HETATM   16  N   UNK     0     -15.442  -9.714 -12.740  0.00  0.00    -0.361 N 
HETATM   17  C   UNK     0     -15.767  -9.815 -11.450  0.00  0.00     0.022 A 
HETATM   18  C   UNK     0     -15.224  -8.712 -10.762  0.00  0.00    -0.027 A 
HETATM   19  C   UNK     0     -14.570  -7.955 -11.699  0.00  0.00    -0.031 A 
HETATM   20  C   UNK     0     -13.808  -6.683 -11.374  0.00  0.00     0.051 C 
HETATM   21  C   UNK     0     -16.621 -10.842 -10.740  0.00  0.00     0.115 C 
HETATM   22  C   UNK     0     -17.787 -11.426 -11.502  0.00  0.00     0.022 A 
HETATM   23  N   UNK     0     -18.641 -10.799 -12.322  0.00  0.00    -0.361 N 
HETATM   24  C   UNK     0     -19.432 -11.726 -12.899  0.00  0.00     0.021 A 
HETATM   25  C   UNK     0     -19.085 -12.980 -12.432  0.00  0.00    -0.031 A 
HETATM   26  C   UNK     0     -19.707 -14.322 -12.755  0.00  0.00     0.051 C 
HETATM   27  C   UNK     0     -18.035 -12.813 -11.537  0.00  0.00    -0.027 A 
HETATM   28  C   UNK     0     -20.489 -11.510 -13.968  0.00  0.00     0.115 C 
HETATM   29  H   UNK     0     -19.243  -8.924 -14.628  0.00  0.00     0.165 HD
HETATM   30  H   UNK     0     -16.112  -9.754 -15.639  0.00  0.00     0.165 HD
HETATM   31  H   UNK     0     -15.687 -10.475 -13.526  0.00  0.00     0.165 HD
HETATM   32  H   UNK     0     -18.722  -9.691 -12.468  0.00  0.00     0.165 HD
ENDROOT
BRANCH   6  33
HETATM   33  C   UNK     0     -19.158 -11.145 -18.826  0.00  0.00     0.051 C 
BRANCH  33  34
HETATM   34  C   UNK     0     -17.829 -11.834 -19.026  0.00  0.00     0.114 C 
BRANCH  34  35
HETATM   35  C   UNK     0     -17.996 -12.815 -20.137  0.00  0.00     0.139 C 
HETATM   36  O   UNK     0     -17.187 -12.819 -21.110  0.00  0.00    -0.650 OA
BRANCH  35  37
HETATM   37  O   UNK     0     -19.021 -13.752 -20.161  0.00  0.00    -0.776 OA
HETATM   38  H   UNK     0     -19.099 -14.476 -19.465  0.00  0.00     0.167 HD
ENDBRANCH  35  37
ENDBRANCH  34  35
ENDBRANCH  33  34
ENDBRANCH   6  33
BRANCH  27  39
HETATM   39  C   UNK     0     -17.437 -13.940 -10.771  0.00  0.00     0.051 C 
BRANCH  39  40
HETATM   40  C   UNK     0     -17.849 -14.131  -9.381  0.00  0.00     0.114 C 
BRANCH  40  41
HETATM   41  C   UNK     0     -17.165 -13.491  -8.279  0.00  0.00     0.139 C 
HETATM   42  O   UNK     0     -17.525 -12.414  -7.785  0.00  0.00    -0.650 OA
BRANCH  41  43
HETATM   43  O   UNK     0     -16.015 -14.118  -7.722  0.00  0.00    -0.776 OA
HETATM   44  H   UNK     0     -16.163 -14.528  -6.808  0.00  0.00     0.167 HD
ENDBRANCH  41  43
ENDBRANCH  40  41
ENDBRANCH  39  40
ENDBRANCH  27  39
BRANCH  11  45
HETATM   45  C   UNK     0     -14.901  -5.171 -15.463  0.00  0.00     0.051 C 
BRANCH  45  46
HETATM   46  C   UNK     0     -15.556  -4.378 -14.392  0.00  0.00     0.114 C 
BRANCH  46  47
HETATM   47  C   UNK     0     -15.583  -2.959 -14.847  0.00  0.00     0.139 C 
HETATM   48  O   UNK     0     -16.551  -2.569 -15.514  0.00  0.00    -0.650 OA
BRANCH  47  49
HETATM   49  O   UNK     0     -14.558  -2.101 -14.537  0.00  0.00    -0.776 OA
HETATM   50  H   UNK     0     -13.572  -2.380 -14.610  0.00  0.00     0.167 HD
ENDBRANCH  47  49
ENDBRANCH  46  47
ENDBRANCH  45  46
ENDBRANCH  11  45
BRANCH  18  51
HETATM   51  C   UNK     0     -15.306  -8.407  -9.288  0.00  0.00     0.051 C 
BRANCH  51  52
HETATM   52  C   UNK     0     -16.568  -7.581  -9.094  0.00  0.00     0.114 C 
BRANCH  52  53
HETATM   53  C   UNK     0     -17.267  -7.932  -7.842  0.00  0.00     0.139 C 
HETATM   54  O   UNK     0     -16.968  -7.360  -6.782  0.00  0.00    -0.650 OA
BRANCH  53  55
HETATM   55  O   UNK     0     -18.246  -8.895  -7.858  0.00  0.00    -0.776 OA
HETATM   56  H   UNK     0     -18.308  -9.654  -8.495  0.00  0.00     0.167 HD
ENDBRANCH  53  55
ENDBRANCH  52  53
ENDBRANCH  51  52
ENDBRANCH  18  51
TORSDOF 16
ENDMDL
MODEL 5
REMARK VINA RESULT:      -9.2      2.555      6.974
REMARK  16 active torsions:
REMARK  status: ('A' for Active; 'I' for Inactive)
REMARK    1  A    between atoms: C_6  and  C_7 
REMARK    2  A    between atoms: C_7  and  C_8 
REMARK    3  A    between atoms: C_8  and  C_9 
REMARK    4  A    between atoms: C_9  and  O_11 
REMARK    5  A    between atoms: C_16  and  C_17 
REMARK    6  A    between atoms: C_17  and  C_18 
REMARK    7  A    between atoms: C_18  and  C_19 
REMARK    8  A    between atoms: C_19  and  O_21 
REMARK    9  A    between atoms: C_28  and  C_29 
REMARK   10  A    between atoms: C_29  and  C_30 
REMARK   11  A    between atoms: C_30  and  C_31 
REMARK   12  A    between atoms: C_31  and  O_33 
REMARK   13  A    between atoms: C_42  and  C_43 
REMARK   14  A    between atoms: C_43  and  C_44 
REMARK   15  A    between atoms: C_44  and  C_45 
REMARK   16  A    between atoms: C_45  and  O_47 
ROOT
HETATM    1  C   UNK     0     -15.542  -6.849 -16.115  0.00  0.00     0.051 C 
HETATM    2  C   UNK     0     -16.072  -8.229 -16.447  0.00  0.00    -0.031 A 
HETATM    3  C   UNK     0     -15.807  -9.443 -15.833  0.00  0.00     0.021 A 
HETATM    4  N   UNK     0     -16.478 -10.423 -16.486  0.00  0.00    -0.361 N 
HETATM    5  C   UNK     0     -17.170  -9.858 -17.496  0.00  0.00     0.022 A 
HETATM    6  C   UNK     0     -16.937  -8.487 -17.502  0.00  0.00    -0.027 A 
HETATM    7  C   UNK     0     -18.138 -10.482 -18.453  0.00  0.00     0.115 C 
HETATM    8  C   UNK     0     -19.126 -11.477 -17.871  0.00  0.00     0.021 A 
HETATM    9  N   UNK     0     -19.728 -11.454 -16.671  0.00  0.00    -0.361 N 
HETATM   10  C   UNK     0     -20.452 -12.585 -16.544  0.00  0.00     0.022 A 
HETATM   11  C   UNK     0     -20.321 -13.354 -17.697  0.00  0.00    -0.027 A 
HETATM   12  C   UNK     0     -19.488 -12.661 -18.537  0.00  0.00    -0.031 A 
HETATM   13  C   UNK     0     -19.063 -13.114 -19.916  0.00  0.00     0.051 C 
HETATM   14  C   UNK     0     -21.250 -13.011 -15.315  0.00  0.00     0.115 C 
HETATM   15  C   UNK     0     -20.406 -13.189 -14.063  0.00  0.00     0.021 A 
HETATM   16  N   UNK     0     -19.629 -12.271 -13.459  0.00  0.00    -0.361 N 
HETATM   17  C   UNK     0     -18.996 -12.839 -12.430  0.00  0.00     0.022 A 
HETATM   18  C   UNK     0     -19.388 -14.191 -12.354  0.00  0.00    -0.027 A 
HETATM   19  C   UNK     0     -20.271 -14.397 -13.382  0.00  0.00    -0.031 A 
HETATM   20  C   UNK     0     -20.968 -15.720 -13.643  0.00  0.00     0.051 C 
HETATM   21  C   UNK     0     -17.967 -12.264 -11.485  0.00  0.00     0.115 C 
HETATM   22  C   UNK     0     -17.004 -11.241 -12.039  0.00  0.00     0.022 A 
HETATM   23  N   UNK     0     -16.394 -11.236 -13.232  0.00  0.00    -0.361 N 
HETATM   24  C   UNK     0     -15.741 -10.064 -13.368  0.00  0.00     0.021 A 
HETATM   25  C   UNK     0     -15.927  -9.300 -12.232  0.00  0.00    -0.031 A 
HETATM   26  C   UNK     0     -15.363  -7.934 -11.899  0.00  0.00     0.051 C 
HETATM   27  C   UNK     0     -16.732 -10.032 -11.367  0.00  0.00    -0.027 A 
HETATM   28  C   UNK     0     -14.982  -9.560 -14.583  0.00  0.00     0.115 C 
HETATM   29  H   UNK     0     -16.425 -11.511 -16.252  0.00  0.00     0.165 HD
HETATM   30  H   UNK     0     -19.683 -10.617 -15.932  0.00  0.00     0.165 HD
HETATM   31  H   UNK     0     -19.561 -11.186 -13.735  0.00  0.00     0.165 HD
HETATM   32  H   UNK     0     -16.383 -12.079 -13.971  0.00  0.00     0.165 HD
ENDROOT
BRANCH   6  33
HETATM   33  C   UNK     0     -17.465  -7.417 -18.424  0.00  0.00     0.051 C 
BRANCH  33  34
HETATM   34  C   UNK     0     -16.449  -7.080 -19.490  0.00  0.00     0.114 C 
BRANCH  34  35
HETATM   35  C   UNK     0     -16.828  -7.829 -20.722  0.00  0.00     0.139 C 
HETATM   36  O   UNK     0     -16.035  -8.680 -21.220  0.00  0.00    -0.650 OA
BRANCH  35  37
HETATM   37  O   UNK     0     -18.043  -7.641 -21.369  0.00  0.00    -0.776 OA
HETATM   38  H   UNK     0     -18.150  -6.982 -22.124  0.00  0.00     0.167 HD
ENDBRANCH  35  37
ENDBRANCH  34  35
ENDBRANCH  33  34
ENDBRANCH   6  33
BRANCH  27  39
HETATM   39  C   UNK     0     -17.094  -9.561 -10.002  0.00  0.00     0.051 C 
BRANCH  39  40
HETATM   40  C   UNK     0     -16.146  -9.797  -8.913  0.00  0.00     0.114 C 
BRANCH  40  41
HETATM   41  C   UNK     0     -16.345 -10.839  -7.931  0.00  0.00     0.139 C 
HETATM   42  O   UNK     0     -17.374 -11.524  -7.860  0.00  0.00    -0.650 OA
BRANCH  41  43
HETATM   43  O   UNK     0     -15.312 -11.105  -6.988  0.00  0.00    -0.776 OA
HETATM   44  H   UNK     0     -15.592 -11.700  -6.217  0.00  0.00     0.167 HD
ENDBRANCH  41  43
ENDBRANCH  40  41
ENDBRANCH  39  40
ENDBRANCH  27  39
BRANCH  11  45
HETATM   45  C   UNK     0     -20.947 -14.685 -18.017  0.00  0.00     0.051 C 
BRANCH  45  46
HETATM   46  C   UNK     0     -20.171 -15.853 -17.528  0.00  0.00     0.114 C 
BRANCH  46  47
HETATM   47  C   UNK     0     -19.770 -16.649 -18.724  0.00  0.00     0.139 C 
HETATM   48  O   UNK     0     -19.075 -17.661 -18.556  0.00  0.00    -0.650 OA
BRANCH  47  49
HETATM   49  O   UNK     0     -20.159 -16.269 -19.983  0.00  0.00    -0.776 OA
HETATM   50  H   UNK     0     -21.057 -16.560 -20.387  0.00  0.00     0.167 HD
ENDBRANCH  47  49
ENDBRANCH  46  47
ENDBRANCH  45  46
ENDBRANCH  11  45
BRANCH  18  51
HETATM   51  C   UNK     0     -18.959 -15.224 -11.345  0.00  0.00     0.051 C 
BRANCH  51  52
HETATM   52  C   UNK     0     -19.719 -14.910 -10.065  0.00  0.00     0.114 C 
BRANCH  52  53
HETATM   53  C   UNK     0     -21.011 -15.621 -10.004  0.00  0.00     0.139 C 
HETATM   54  O   UNK     0     -21.071 -16.826 -10.296  0.00  0.00    -0.650 OA
BRANCH  53  55
HETATM   55  O   UNK     0     -22.143 -14.941  -9.627  0.00  0.00    -0.776 OA
HETATM   56  H   UNK     0     -22.309 -13.970  -9.748  0.00  0.00     0.167 HD
ENDBRANCH  53  55
ENDBRANCH  52  53
ENDBRANCH  51  52
ENDBRANCH  18  51
TORSDOF 16
ENDMDL
MODEL 6
REMARK VINA RESULT:      -9.2      3.017      7.931
REMARK  16 active torsions:
REMARK  status: ('A' for Active; 'I' for Inactive)
REMARK    1  A    between atoms: C_6  and  C_7 
REMARK    2  A    between atoms: C_7  and  C_8 
REMARK    3  A    between atoms: C_8  and  C_9 
REMARK    4  A    between atoms: C_9  and  O_11 
REMARK    5  A    between atoms: C_16  and  C_17 
REMARK    6  A    between atoms: C_17  and  C_18 
REMARK    7  A    between atoms: C_18  and  C_19 
REMARK    8  A    between atoms: C_19  and  O_21 
REMARK    9  A    between atoms: C_28  and  C_29 
REMARK   10  A    between atoms: C_29  and  C_30 
REMARK   11  A    between atoms: C_30  and  C_31 
REMARK   12  A    between atoms: C_31  and  O_33 
REMARK   13  A    between atoms: C_42  and  C_43 
REMARK   14  A    between atoms: C_43  and  C_44 
REMARK   15  A    between atoms: C_44  and  C_45 
REMARK   16  A    between atoms: C_45  and  O_47 
ROOT
HETATM    1  C   UNK     0     -17.794 -13.882  -7.164  0.00  0.00     0.051 C 
HETATM    2  C   UNK     0     -17.339 -12.959  -8.276  0.00  0.00    -0.031 A 
HETATM    3  C   UNK     0     -17.261 -13.195  -9.639  0.00  0.00     0.021 A 
HETATM    4  N   UNK     0     -16.768 -12.093 -10.251  0.00  0.00    -0.361 N 
HETATM    5  C   UNK     0     -16.538 -11.155  -9.309  0.00  0.00     0.022 A 
HETATM    6  C   UNK     0     -16.882 -11.665  -8.061  0.00  0.00    -0.027 A 
HETATM    7  C   UNK     0     -16.085  -9.737  -9.467  0.00  0.00     0.115 C 
HETATM    8  C   UNK     0     -16.715  -8.942 -10.597  0.00  0.00     0.021 A 
HETATM    9  N   UNK     0     -17.972  -9.002 -11.061  0.00  0.00    -0.361 N 
HETATM   10  C   UNK     0     -18.063  -8.186 -12.133  0.00  0.00     0.022 A 
HETATM   11  C   UNK     0     -16.832  -7.577 -12.359  0.00  0.00    -0.027 A 
HETATM   12  C   UNK     0     -15.978  -8.049 -11.395  0.00  0.00    -0.031 A 
HETATM   13  C   UNK     0     -14.525  -7.657 -11.246  0.00  0.00     0.051 C 
HETATM   14  C   UNK     0     -19.292  -7.989 -13.015  0.00  0.00     0.115 C 
HETATM   15  C   UNK     0     -19.763  -9.258 -13.707  0.00  0.00     0.021 A 
HETATM   16  N   UNK     0     -20.142 -10.415 -13.132  0.00  0.00    -0.361 N 
HETATM   17  C   UNK     0     -20.417 -11.308 -14.085  0.00  0.00     0.022 A 
HETATM   18  C   UNK     0     -20.217 -10.702 -15.341  0.00  0.00    -0.027 A 
HETATM   19  C   UNK     0     -19.809  -9.417 -15.090  0.00  0.00    -0.031 A 
HETATM   20  C   UNK     0     -19.516  -8.398 -16.176  0.00  0.00     0.051 C 
HETATM   21  C   UNK     0     -20.812 -12.763 -13.968  0.00  0.00     0.115 C 
HETATM   22  C   UNK     0     -20.227 -13.555 -12.822  0.00  0.00     0.022 A 
HETATM   23  N   UNK     0     -18.980 -13.513 -12.336  0.00  0.00    -0.361 N 
HETATM   24  C   UNK     0     -18.934 -14.273 -11.223  0.00  0.00     0.021 A 
HETATM   25  C   UNK     0     -20.179 -14.825 -10.993  0.00  0.00    -0.031 A 
HETATM   26  C   UNK     0     -20.612 -15.775  -9.895  0.00  0.00     0.051 C 
HETATM   27  C   UNK     0     -21.024 -14.380 -12.003  0.00  0.00    -0.027 A 
HETATM   28  C   UNK     0     -17.762 -14.462 -10.274  0.00  0.00     0.115 C 
HETATM   29  H   UNK     0     -16.548 -11.998 -11.340  0.00  0.00     0.165 HD
HETATM   30  H   UNK     0     -18.812  -9.580 -10.604  0.00  0.00     0.165 HD
HETATM   31  H   UNK     0     -20.265 -10.591 -12.032  0.00  0.00     0.165 HD
HETATM   32  H   UNK     0     -18.108 -12.981 -12.799  0.00  0.00     0.165 HD
ENDROOT
BRANCH   6  33
HETATM   33  C   UNK     0     -16.808 -11.025  -6.698  0.00  0.00     0.051 C 
BRANCH  33  34
HETATM   34  C   UNK     0     -17.270  -9.588  -6.755  0.00  0.00     0.114 C 
BRANCH  34  35
HETATM   35  C   UNK     0     -18.685  -9.555  -6.287  0.00  0.00     0.139 C 
HETATM   36  O   UNK     0     -19.320  -8.461  -6.255  0.00  0.00    -0.650 OA
BRANCH  35  37
HETATM   37  O   UNK     0     -19.364 -10.695  -5.874  0.00  0.00    -0.776 OA
HETATM   38  H   UNK     0     -19.182 -11.133  -4.986  0.00  0.00     0.167 HD
ENDBRANCH  35  37
ENDBRANCH  34  35
ENDBRANCH  33  34
ENDBRANCH   6  33
BRANCH  27  39
HETATM   39  C   UNK     0     -22.438 -14.825 -12.131  0.00  0.00     0.051 C 
BRANCH  39  40
HETATM   40  C   UNK     0     -23.497 -13.841 -11.907  0.00  0.00     0.114 C 
BRANCH  40  41
HETATM   41  C   UNK     0     -24.295 -13.830 -10.701  0.00  0.00     0.139 C 
HETATM   42  O   UNK     0     -25.443 -13.369 -10.645  0.00  0.00    -0.650 OA
BRANCH  41  43
HETATM   43  O   UNK     0     -23.747 -14.374  -9.505  0.00  0.00    -0.776 OA
HETATM   44  H   UNK     0     -22.973 -13.846  -9.120  0.00  0.00     0.167 HD
ENDBRANCH  41  43
ENDBRANCH  40  41
ENDBRANCH  39  40
ENDBRANCH  27  39
BRANCH  11  45
HETATM   45  C   UNK     0     -16.452  -6.589 -13.429  0.00  0.00     0.051 C 
BRANCH  45  46
HETATM   46  C   UNK     0     -15.891  -7.209 -14.656  0.00  0.00     0.114 C 
BRANCH  46  47
HETATM   47  C   UNK     0     -14.870  -6.268 -15.200  0.00  0.00     0.139 C 
HETATM   48  O   UNK     0     -13.910  -5.956 -14.481  0.00  0.00    -0.650 OA
BRANCH  47  49
HETATM   49  O   UNK     0     -14.990  -5.757 -16.467  0.00  0.00    -0.776 OA
HETATM   50  H   UNK     0     -14.171  -5.562 -17.056  0.00  0.00     0.167 HD
ENDBRANCH  47  49
ENDBRANCH  46  47
ENDBRANCH  45  46
ENDBRANCH  11  45
BRANCH  18  51
HETATM   51  C   UNK     0     -20.424 -11.307 -16.705  0.00  0.00     0.051 C 
BRANCH  51  52
HETATM   52  C   UNK     0     -21.928 -11.337 -16.934  0.00  0.00     0.114 C 
BRANCH  52  53
HETATM   53  C   UNK     0     -22.424 -10.063 -17.491  0.00  0.00     0.139 C 
HETATM   54  O   UNK     0     -22.432  -9.882 -18.719  0.00  0.00    -0.650 OA
BRANCH  53  55
HETATM   55  O   UNK     0     -22.874  -9.081 -16.642  0.00  0.00    -0.776 OA
HETATM   56  H   UNK     0     -22.567  -8.928 -15.711  0.00  0.00     0.167 HD
ENDBRANCH  53  55
ENDBRANCH  52  53
ENDBRANCH  51  52
ENDBRANCH  18  51
TORSDOF 16
ENDMDL
MODEL 7
REMARK VINA RESULT:      -9.1      4.408      6.634
REMARK  16 active torsions:
REMARK  status: ('A' for Active; 'I' for Inactive)
REMARK    1  A    between atoms: C_6  and  C_7 
REMARK    2  A    between atoms: C_7  and  C_8 
REMARK    3  A    between atoms: C_8  and  C_9 
REMARK    4  A    between atoms: C_9  and  O_11 
REMARK    5  A    between atoms: C_16  and  C_17 
REMARK    6  A    between atoms: C_17  and  C_18 
REMARK    7  A    between atoms: C_18  and  C_19 
REMARK    8  A    between atoms: C_19  and  O_21 
REMARK    9  A    between atoms: C_28  and  C_29 
REMARK   10  A    between atoms: C_29  and  C_30 
REMARK   11  A    between atoms: C_30  and  C_31 
REMARK   12  A    between atoms: C_31  and  O_33 
REMARK   13  A    between atoms: C_42  and  C_43 
REMARK   14  A    between atoms: C_43  and  C_44 
REMARK   15  A    between atoms: C_44  and  C_45 
REMARK   16  A    between atoms: C_45  and  O_47 
ROOT
HETATM    1  C   UNK     0     -20.128 -13.022 -15.231  0.00  0.00     0.051 C 
HETATM    2  C   UNK     0     -20.206 -11.821 -16.152  0.00  0.00    -0.031 A 
HETATM    3  C   UNK     0     -20.362 -10.480 -15.837  0.00  0.00     0.021 A 
HETATM    4  N   UNK     0     -20.411  -9.761 -16.984  0.00  0.00    -0.361 N 
HETATM    5  C   UNK     0     -20.280 -10.613 -18.021  0.00  0.00     0.022 A 
HETATM    6  C   UNK     0     -20.153 -11.910 -17.537  0.00  0.00    -0.027 A 
HETATM    7  C   UNK     0     -20.176 -10.321 -19.486  0.00  0.00     0.115 C 
HETATM    8  C   UNK     0     -19.294  -9.152 -19.886  0.00  0.00     0.021 A 
HETATM    9  N   UNK     0     -18.146  -8.740 -19.326  0.00  0.00    -0.361 N 
HETATM   10  C   UNK     0     -17.757  -7.608 -19.950  0.00  0.00     0.022 A 
HETATM   11  C   UNK     0     -18.675  -7.287 -20.946  0.00  0.00    -0.027 A 
HETATM   12  C   UNK     0     -19.646  -8.255 -20.911  0.00  0.00    -0.031 A 
HETATM   13  C   UNK     0     -20.850  -8.319 -21.823  0.00  0.00     0.051 C 
HETATM   14  C   UNK     0     -16.539  -6.758 -19.600  0.00  0.00     0.115 C 
HETATM   15  C   UNK     0     -16.569  -6.192 -18.189  0.00  0.00     0.021 A 
HETATM   16  N   UNK     0     -16.646  -6.874 -17.032  0.00  0.00    -0.361 N 
HETATM   17  C   UNK     0     -16.719  -6.010 -16.017  0.00  0.00     0.022 A 
HETATM   18  C   UNK     0     -16.677  -4.701 -16.538  0.00  0.00    -0.027 A 
HETATM   19  C   UNK     0     -16.582  -4.829 -17.899  0.00  0.00    -0.031 A 
HETATM   20  C   UNK     0     -16.474  -3.652 -18.851  0.00  0.00     0.051 C 
HETATM   21  C   UNK     0     -16.891  -6.262 -14.536  0.00  0.00     0.115 C 
HETATM   22  C   UNK     0     -17.730  -7.448 -14.123  0.00  0.00     0.022 A 
HETATM   23  N   UNK     0     -18.875  -7.884 -14.665  0.00  0.00    -0.361 N 
HETATM   24  C   UNK     0     -19.202  -9.054 -14.081  0.00  0.00     0.021 A 
HETATM   25  C   UNK     0     -18.250  -9.374 -13.132  0.00  0.00    -0.031 A 
HETATM   26  C   UNK     0     -18.202 -10.562 -12.193  0.00  0.00     0.051 C 
HETATM   27  C   UNK     0     -17.298  -8.362 -13.140  0.00  0.00    -0.027 A 
HETATM   28  C   UNK     0     -20.363  -9.972 -14.423  0.00  0.00     0.115 C 
HETATM   29  H   UNK     0     -20.577  -8.661 -17.053  0.00  0.00     0.165 HD
HETATM   30  H   UNK     0     -17.581  -9.274 -18.523  0.00  0.00     0.165 HD
HETATM   31  H   UNK     0     -16.601  -7.989 -16.924  0.00  0.00     0.165 HD
HETATM   32  H   UNK     0     -19.487  -7.347 -15.436  0.00  0.00     0.165 HD
ENDROOT
BRANCH   6  33
HETATM   33  C   UNK     0     -19.989 -13.212 -18.280  0.00  0.00     0.051 C 
BRANCH  33  34
HETATM   34  C   UNK     0     -18.530 -13.591 -18.380  0.00  0.00     0.114 C 
BRANCH  34  35
HETATM   35  C   UNK     0     -17.944 -12.815 -19.511  0.00  0.00     0.139 C 
HETATM   36  O   UNK     0     -17.072 -11.925 -19.288  0.00  0.00    -0.650 OA
BRANCH  35  37
HETATM   37  O   UNK     0     -18.312 -13.025 -20.834  0.00  0.00    -0.776 OA
HETATM   38  H   UNK     0     -18.712 -12.294 -21.400  0.00  0.00     0.167 HD
ENDBRANCH  35  37
ENDBRANCH  34  35
ENDBRANCH  33  34
ENDBRANCH   6  33
BRANCH  27  39
HETATM   39  C   UNK     0     -16.148  -8.322 -12.197  0.00  0.00     0.051 C 
BRANCH  39  40
HETATM   40  C   UNK     0     -15.014  -9.212 -12.448  0.00  0.00     0.114 C 
BRANCH  40  41
HETATM   41  C   UNK     0     -14.379  -9.304 -13.744  0.00  0.00     0.139 C 
HETATM   42  O   UNK     0     -14.986  -9.164 -14.814  0.00  0.00    -0.650 OA
BRANCH  41  43
HETATM   43  O   UNK     0     -12.982  -9.571 -13.811  0.00  0.00    -0.776 OA
HETATM   44  H   UNK     0     -12.622 -10.120 -13.040  0.00  0.00     0.167 HD
ENDBRANCH  41  43
ENDBRANCH  40  41
ENDBRANCH  39  40
ENDBRANCH  27  39
BRANCH  11  45
HETATM   45  C   UNK     0     -18.659  -6.125 -21.903  0.00  0.00     0.051 C 
BRANCH  45  46
HETATM   46  C   UNK     0     -18.900  -4.807 -21.261  0.00  0.00     0.114 C 
BRANCH  46  47
HETATM   47  C   UNK     0     -18.038  -3.811 -21.959  0.00  0.00     0.139 C 
HETATM   48  O   UNK     0     -16.895  -4.151 -22.298  0.00  0.00    -0.650 OA
BRANCH  47  49
HETATM   49  O   UNK     0     -18.497  -2.545 -22.221  0.00  0.00    -0.776 OA
HETATM   50  H   UNK     0     -17.925  -1.849 -22.713  0.00  0.00     0.167 HD
ENDBRANCH  47  49
ENDBRANCH  46  47
ENDBRANCH  45  46
ENDBRANCH  11  45
BRANCH  18  51
HETATM   51  C   UNK     0     -16.705  -3.401 -15.778  0.00  0.00     0.051 C 
BRANCH  51  52
HETATM   52  C   UNK     0     -15.294  -3.185 -15.250  0.00  0.00     0.114 C 
BRANCH  52  53
HETATM   53  C   UNK     0     -15.231  -2.068 -14.289  0.00  0.00     0.139 C 
HETATM   54  O   UNK     0     -14.184  -1.412 -14.165  0.00  0.00    -0.650 OA
BRANCH  53  55
HETATM   55  O   UNK     0     -16.335  -1.760 -13.531  0.00  0.00    -0.776 OA
HETATM   56  H   UNK     0     -16.833  -0.901 -13.545  0.00  0.00     0.167 HD
ENDBRANCH  53  55
ENDBRANCH  52  53
ENDBRANCH  51  52
ENDBRANCH  18  51
TORSDOF 16
ENDMDL
MODEL 8
REMARK VINA RESULT:      -9.0      2.734      9.881
REMARK  16 active torsions:
REMARK  status: ('A' for Active; 'I' for Inactive)
REMARK    1  A    between atoms: C_6  and  C_7 
REMARK    2  A    between atoms: C_7  and  C_8 
REMARK    3  A    between atoms: C_8  and  C_9 
REMARK    4  A    between atoms: C_9  and  O_11 
REMARK    5  A    between atoms: C_16  and  C_17 
REMARK    6  A    between atoms: C_17  and  C_18 
REMARK    7  A    between atoms: C_18  and  C_19 
REMARK    8  A    between atoms: C_19  and  O_21 
REMARK    9  A    between atoms: C_28  and  C_29 
REMARK   10  A    between atoms: C_29  and  C_30 
REMARK   11  A    between atoms: C_30  and  C_31 
REMARK   12  A    between atoms: C_31  and  O_33 
REMARK   13  A    between atoms: C_42  and  C_43 
REMARK   14  A    between atoms: C_43  and  C_44 
REMARK   15  A    between atoms: C_44  and  C_45 
REMARK   16  A    between atoms: C_45  and  O_47 
ROOT
HETATM    1  C   UNK     0     -16.167  -6.765 -13.327  0.00  0.00     0.051 C 
HETATM    2  C   UNK     0     -16.673  -7.685 -12.235  0.00  0.00    -0.031 A 
HETATM    3  C   UNK     0     -17.944  -8.203 -12.039  0.00  0.00     0.021 A 
HETATM    4  N   UNK     0     -17.945  -8.955 -10.913  0.00  0.00    -0.361 N 
HETATM    5  C   UNK     0     -16.701  -8.936 -10.392  0.00  0.00     0.022 A 
HETATM    6  C   UNK     0     -15.880  -8.148 -11.193  0.00  0.00    -0.027 A 
HETATM    7  C   UNK     0     -16.151  -9.676  -9.213  0.00  0.00     0.115 C 
HETATM    8  C   UNK     0     -16.562 -11.131  -9.070  0.00  0.00     0.021 A 
HETATM    9  N   UNK     0     -16.773 -12.040 -10.035  0.00  0.00    -0.361 N 
HETATM   10  C   UNK     0     -17.213 -13.175  -9.452  0.00  0.00     0.022 A 
HETATM   11  C   UNK     0     -17.279 -12.996  -8.074  0.00  0.00    -0.027 A 
HETATM   12  C   UNK     0     -16.870 -11.710  -7.826  0.00  0.00    -0.031 A 
HETATM   13  C   UNK     0     -16.775 -11.072  -6.458  0.00  0.00     0.051 C 
HETATM   14  C   UNK     0     -17.638 -14.452 -10.173  0.00  0.00     0.115 C 
HETATM   15  C   UNK     0     -18.811 -14.262 -11.121  0.00  0.00     0.021 A 
HETATM   16  N   UNK     0     -18.888 -13.430 -12.176  0.00  0.00    -0.361 N 
HETATM   17  C   UNK     0     -20.110 -13.508 -12.708  0.00  0.00     0.022 A 
HETATM   18  C   UNK     0     -20.863 -14.443 -11.969  0.00  0.00    -0.027 A 
HETATM   19  C   UNK     0     -20.037 -14.909 -10.979  0.00  0.00    -0.031 A 
HETATM   20  C   UNK     0     -20.443 -15.968  -9.970  0.00  0.00     0.051 C 
HETATM   21  C   UNK     0     -20.724 -12.733 -13.851  0.00  0.00     0.115 C 
HETATM   22  C   UNK     0     -20.290 -11.297 -14.033  0.00  0.00     0.022 A 
HETATM   23  N   UNK     0     -20.069 -10.371 -13.091  0.00  0.00    -0.361 N 
HETATM   24  C   UNK     0     -19.558  -9.275 -13.686  0.00  0.00     0.021 A 
HETATM   25  C   UNK     0     -19.457  -9.496 -15.046  0.00  0.00    -0.031 A 
HETATM   26  C   UNK     0     -18.981  -8.554 -16.132  0.00  0.00     0.051 C 
HETATM   27  C   UNK     0     -19.920 -10.784 -15.292  0.00  0.00    -0.027 A 
HETATM   28  C   UNK     0     -19.063  -8.002 -13.021  0.00  0.00     0.115 C 
HETATM   29  H   UNK     0     -18.835  -9.463 -10.473  0.00  0.00     0.165 HD
HETATM   30  H   UNK     0     -16.564 -11.899 -11.123  0.00  0.00     0.165 HD
HETATM   31  H   UNK     0     -18.049 -12.809 -12.584  0.00  0.00     0.165 HD
HETATM   32  H   UNK     0     -20.313 -10.467 -12.001  0.00  0.00     0.165 HD
ENDROOT
BRANCH   6  33
HETATM   33  C   UNK     0     -14.420  -7.805 -11.043  0.00  0.00     0.051 C 
BRANCH  33  34
HETATM   34  C   UNK     0     -14.248  -6.542 -10.232  0.00  0.00     0.114 C 
BRANCH  34  35
HETATM   35  C   UNK     0     -13.296  -6.848  -9.126  0.00  0.00     0.139 C 
HETATM   36  O   UNK     0     -13.727  -7.051  -7.953  0.00  0.00    -0.650 OA
BRANCH  35  37
HETATM   37  O   UNK     0     -11.923  -6.928  -9.319  0.00  0.00    -0.776 OA
HETATM   38  H   UNK     0     -11.397  -6.177  -9.736  0.00  0.00     0.167 HD
ENDBRANCH  35  37
ENDBRANCH  34  35
ENDBRANCH  33  34
ENDBRANCH   6  33
BRANCH  27  39
HETATM   39  C   UNK     0     -20.031 -11.357 -16.661  0.00  0.00     0.051 C 
BRANCH  39  40
HETATM   40  C   UNK     0     -21.285 -11.175 -17.390  0.00  0.00     0.114 C 
BRANCH  40  41
HETATM   41  C   UNK     0     -22.448 -10.566 -16.784  0.00  0.00     0.139 C 
HETATM   42  O   UNK     0     -23.234 -11.177 -16.048  0.00  0.00    -0.650 OA
BRANCH  41  43
HETATM   43  O   UNK     0     -22.718  -9.191 -17.036  0.00  0.00    -0.776 OA
HETATM   44  H   UNK     0     -22.179  -8.547 -16.469  0.00  0.00     0.167 HD
ENDBRANCH  41  43
ENDBRANCH  40  41
ENDBRANCH  39  40
ENDBRANCH  27  39
BRANCH  11  45
HETATM   45  C   UNK     0     -17.702 -13.979  -7.015  0.00  0.00     0.051 C 
BRANCH  45  46
HETATM   46  C   UNK     0     -16.732 -15.080  -6.787  0.00  0.00     0.114 C 
BRANCH  46  47
HETATM   47  C   UNK     0     -17.468 -16.184  -6.108  0.00  0.00     0.139 C 
HETATM   48  O   UNK     0     -16.912 -16.781  -5.176  0.00  0.00    -0.650 OA
BRANCH  47  49
HETATM   49  O   UNK     0     -18.733 -16.534  -6.507  0.00  0.00    -0.776 OA
HETATM   50  H   UNK     0     -19.315 -17.186  -5.966  0.00  0.00     0.167 HD
ENDBRANCH  47  49
ENDBRANCH  46  47
ENDBRANCH  45  46
ENDBRANCH  11  45
BRANCH  18  51
HETATM   51  C   UNK     0     -22.284 -14.884 -12.207  0.00  0.00     0.051 C 
BRANCH  51  52
HETATM   52  C   UNK     0     -23.109 -14.291 -11.074  0.00  0.00     0.114 C 
BRANCH  52  53
HETATM   53  C   UNK     0     -24.322 -13.615 -11.573  0.00  0.00     0.139 C 
HETATM   54  O   UNK     0     -25.301 -13.463 -10.826  0.00  0.00    -0.650 OA
BRANCH  53  55
HETATM   55  O   UNK     0     -24.361 -13.158 -12.868  0.00  0.00    -0.776 OA
HETATM   56  H   UNK     0     -23.728 -12.514 -13.280  0.00  0.00     0.167 HD
ENDBRANCH  53  55
ENDBRANCH  52  53
ENDBRANCH  51  52
ENDBRANCH  18  51
TORSDOF 16
ENDMDL
MODEL 9
REMARK VINA RESULT:      -8.9      2.063      2.518
REMARK  16 active torsions:
REMARK  status: ('A' for Active; 'I' for Inactive)
REMARK    1  A    between atoms: C_6  and  C_7 
REMARK    2  A    between atoms: C_7  and  C_8 
REMARK    3  A    between atoms: C_8  and  C_9 
REMARK    4  A    between atoms: C_9  and  O_11 
REMARK    5  A    between atoms: C_16  and  C_17 
REMARK    6  A    between atoms: C_17  and  C_18 
REMARK    7  A    between atoms: C_18  and  C_19 
REMARK    8  A    between atoms: C_19  and  O_21 
REMARK    9  A    between atoms: C_28  and  C_29 
REMARK   10  A    between atoms: C_29  and  C_30 
REMARK   11  A    between atoms: C_30  and  C_31 
REMARK   12  A    between atoms: C_31  and  O_33 
REMARK   13  A    between atoms: C_42  and  C_43 
REMARK   14  A    between atoms: C_43  and  C_44 
REMARK   15  A    between atoms: C_44  and  C_45 
REMARK   16  A    between atoms: C_45  and  O_47 
ROOT
HETATM    1  C   UNK     0     -20.612 -16.257 -16.845  0.00  0.00     0.051 C 
HETATM    2  C   UNK     0     -20.249 -14.787 -16.778  0.00  0.00    -0.031 A 
HETATM    3  C   UNK     0     -20.500 -13.864 -15.776  0.00  0.00     0.021 A 
HETATM    4  N   UNK     0     -20.021 -12.656 -16.158  0.00  0.00    -0.361 N 
HETATM    5  C   UNK     0     -19.462 -12.792 -17.378  0.00  0.00     0.022 A 
HETATM    6  C   UNK     0     -19.590 -14.112 -17.797  0.00  0.00    -0.027 A 
HETATM    7  C   UNK     0     -18.714 -11.789 -18.199  0.00  0.00     0.115 C 
HETATM    8  C   UNK     0     -17.721 -10.908 -17.462  0.00  0.00     0.021 A 
HETATM    9  N   UNK     0     -16.932 -11.226 -16.424  0.00  0.00    -0.361 N 
HETATM   10  C   UNK     0     -16.284 -10.108 -16.033  0.00  0.00     0.022 A 
HETATM   11  C   UNK     0     -16.659  -9.043 -16.847  0.00  0.00    -0.027 A 
HETATM   12  C   UNK     0     -17.564  -9.540 -17.750  0.00  0.00    -0.031 A 
HETATM   13  C   UNK     0     -18.241  -8.740 -18.839  0.00  0.00     0.051 C 
HETATM   14  C   UNK     0     -15.329  -9.987 -14.848  0.00  0.00     0.115 C 
HETATM   15  C   UNK     0     -15.969 -10.310 -13.507  0.00  0.00     0.021 A 
HETATM   16  N   UNK     0     -16.566 -11.458 -13.137  0.00  0.00    -0.361 N 
HETATM   17  C   UNK     0     -17.062 -11.317 -11.906  0.00  0.00     0.022 A 
HETATM   18  C   UNK     0     -16.766 -10.018 -11.448  0.00  0.00    -0.027 A 
HETATM   19  C   UNK     0     -16.080  -9.397 -12.460  0.00  0.00    -0.031 A 
HETATM   20  C   UNK     0     -15.537  -7.983 -12.368  0.00  0.00     0.051 C 
HETATM   21  C   UNK     0     -17.877 -12.278 -11.070  0.00  0.00     0.115 C 
HETATM   22  C   UNK     0     -18.837 -13.192 -11.796  0.00  0.00     0.022 A 
HETATM   23  N   UNK     0     -19.632 -12.904 -12.834  0.00  0.00    -0.361 N 
HETATM   24  C   UNK     0     -20.209 -14.047 -13.256  0.00  0.00     0.021 A 
HETATM   25  C   UNK     0     -19.783 -15.095 -12.463  0.00  0.00    -0.031 A 
HETATM   26  C   UNK     0     -20.180 -16.556 -12.519  0.00  0.00     0.051 C 
HETATM   27  C   UNK     0     -18.904 -14.573 -11.521  0.00  0.00    -0.027 A 
HETATM   28  C   UNK     0     -21.117 -14.242 -14.458  0.00  0.00     0.115 C 
HETATM   29  H   UNK     0     -20.116 -11.708 -15.580  0.00  0.00     0.165 HD
HETATM   30  H   UNK     0     -16.792 -12.249 -15.996  0.00  0.00     0.165 HD
HETATM   31  H   UNK     0     -16.596 -12.404 -13.737  0.00  0.00     0.165 HD
HETATM   32  H   UNK     0     -19.828 -11.882 -13.253  0.00  0.00     0.165 HD
ENDROOT
BRANCH   6  33
HETATM   33  C   UNK     0     -19.141 -14.771 -19.077  0.00  0.00     0.051 C 
BRANCH  33  34
HETATM   34  C   UNK     0     -20.330 -15.229 -19.888  0.00  0.00     0.114 C 
BRANCH  34  35
HETATM   35  C   UNK     0     -19.828 -15.609 -21.240  0.00  0.00     0.139 C 
HETATM   36  O   UNK     0     -20.431 -16.491 -21.919  0.00  0.00    -0.650 OA
BRANCH  35  37
HETATM   37  O   UNK     0     -18.702 -15.029 -21.811  0.00  0.00    -0.776 OA
HETATM   38  H   UNK     0     -18.177 -14.308 -21.344  0.00  0.00     0.167 HD
ENDBRANCH  35  37
ENDBRANCH  34  35
ENDBRANCH  33  34
ENDBRANCH   6  33
BRANCH  27  39
HETATM   39  C   UNK     0     -18.290 -15.393 -10.442  0.00  0.00     0.051 C 
BRANCH  39  40
HETATM   40  C   UNK     0     -16.839 -15.580 -10.452  0.00  0.00     0.114 C 
BRANCH  40  41
HETATM   41  C   UNK     0     -16.122 -16.101  -9.311  0.00  0.00     0.139 C 
HETATM   42  O   UNK     0     -16.193 -15.611  -8.176  0.00  0.00    -0.650 OA
BRANCH  41  43
HETATM   43  O   UNK     0     -15.282 -17.239  -9.483  0.00  0.00    -0.776 OA
HETATM   44  H   UNK     0     -15.561 -18.050  -8.945  0.00  0.00     0.167 HD
ENDBRANCH  41  43
ENDBRANCH  40  41
ENDBRANCH  39  40
ENDBRANCH  27  39
BRANCH  11  45
HETATM   45  C   UNK     0     -16.196  -7.612 -16.799  0.00  0.00     0.051 C 
BRANCH  45  46
HETATM   46  C   UNK     0     -16.931  -6.770 -15.821  0.00  0.00     0.114 C 
BRANCH  46  47
HETATM   47  C   UNK     0     -17.234  -5.474 -16.494  0.00  0.00     0.139 C 
HETATM   48  O   UNK     0     -17.565  -5.490 -17.688  0.00  0.00    -0.650 OA
BRANCH  47  49
HETATM   49  O   UNK     0     -17.148  -4.289 -15.808  0.00  0.00    -0.776 OA
HETATM   50  H   UNK     0     -17.221  -3.380 -16.280  0.00  0.00     0.167 HD
ENDBRANCH  47  49
ENDBRANCH  46  47
ENDBRANCH  45  46
ENDBRANCH  11  45
BRANCH  18  51
HETATM   51  C   UNK     0     -17.101  -9.408 -10.112  0.00  0.00     0.051 C 
BRANCH  51  52
HETATM   52  C   UNK     0     -15.921  -9.708  -9.199  0.00  0.00     0.114 C 
BRANCH  52  53
HETATM   53  C   UNK     0     -16.304 -10.586  -8.077  0.00  0.00     0.139 C 
HETATM   54  O   UNK     0     -17.502 -10.831  -7.860  0.00  0.00    -0.650 OA
BRANCH  53  55
HETATM   55  O   UNK     0     -15.330 -11.127  -7.273  0.00  0.00    -0.776 OA
HETATM   56  H   UNK     0     -14.365 -10.893  -7.288  0.00  0.00     0.167 HD
ENDBRANCH  53  55
ENDBRANCH  52  53
ENDBRANCH  51  52
ENDBRANCH  18  51
TORSDOF 16
ENDMDL
MODEL 10
REMARK VINA RESULT:      -8.7      3.183      8.107
REMARK  16 active torsions:
REMARK  status: ('A' for Active; 'I' for Inactive)
REMARK    1  A    between atoms: C_6  and  C_7 
REMARK    2  A    between atoms: C_7  and  C_8 
REMARK    3  A    between atoms: C_8  and  C_9 
REMARK    4  A    between atoms: C_9  and  O_11 
REMARK    5  A    between atoms: C_16  and  C_17 
REMARK    6  A    between atoms: C_17  and  C_18 
REMARK    7  A    between atoms: C_18  and  C_19 
REMARK    8  A    between atoms: C_19  and  O_21 
REMARK    9  A    between atoms: C_28  and  C_29 
REMARK   10  A    between atoms: C_29  and  C_30 
REMARK   11  A    between atoms: C_30  and  C_31 
REMARK   12  A    between atoms: C_31  and  O_33 
REMARK   13  A    between atoms: C_42  and  C_43 
REMARK   14  A    between atoms: C_43  and  C_44 
REMARK   15  A    between atoms: C_44  and  C_45 
REMARK   16  A    between atoms: C_45  and  O_47 
ROOT
HETATM    1  C   UNK     0     -17.783 -12.913  -6.542  0.00  0.00     0.051 C 
HETATM    2  C   UNK     0     -17.249 -12.069  -7.682  0.00  0.00    -0.031 A 
HETATM    3  C   UNK     0     -16.907 -12.447  -8.971  0.00  0.00     0.021 A 
HETATM    4  N   UNK     0     -16.444 -11.365  -9.640  0.00  0.00    -0.361 N 
HETATM    5  C   UNK     0     -16.491 -10.304  -8.808  0.00  0.00     0.022 A 
HETATM    6  C   UNK     0     -16.988 -10.709  -7.574  0.00  0.00    -0.027 A 
HETATM    7  C   UNK     0     -16.183  -8.865  -9.082  0.00  0.00     0.115 C 
HETATM    8  C   UNK     0     -16.692  -8.297 -10.395  0.00  0.00     0.021 A 
HETATM    9  N   UNK     0     -17.833  -8.579 -11.042  0.00  0.00    -0.361 N 
HETATM   10  C   UNK     0     -17.827  -7.910 -12.215  0.00  0.00     0.022 A 
HETATM   11  C   UNK     0     -16.653  -7.170 -12.322  0.00  0.00    -0.027 A 
HETATM   12  C   UNK     0     -15.934  -7.409 -11.180  0.00  0.00    -0.031 A 
HETATM   13  C   UNK     0     -14.584  -6.808 -10.855  0.00  0.00     0.051 C 
HETATM   14  C   UNK     0     -18.898  -7.984 -13.300  0.00  0.00     0.115 C 
HETATM   15  C   UNK     0     -19.092  -9.376 -13.880  0.00  0.00     0.021 A 
HETATM   16  N   UNK     0     -19.431 -10.500 -13.222  0.00  0.00    -0.361 N 
HETATM   17  C   UNK     0     -19.430 -11.525 -14.076  0.00  0.00     0.022 A 
HETATM   18  C   UNK     0     -19.084 -11.045 -15.355  0.00  0.00    -0.027 A 
HETATM   19  C   UNK     0     -18.876  -9.697 -15.218  0.00  0.00    -0.031 A 
HETATM   20  C   UNK     0     -18.516  -8.777 -16.371  0.00  0.00     0.051 C 
HETATM   21  C   UNK     0     -19.670 -12.997 -13.828  0.00  0.00     0.115 C 
HETATM   22  C   UNK     0     -19.208 -13.566 -12.507  0.00  0.00     0.022 A 
HETATM   23  N   UNK     0     -18.079 -13.301 -11.838  0.00  0.00    -0.361 N 
HETATM   24  C   UNK     0     -18.142 -13.915 -10.640  0.00  0.00     0.021 A 
HETATM   25  C   UNK     0     -19.336 -14.601 -10.538  0.00  0.00    -0.031 A 
HETATM   26  C   UNK     0     -19.844 -15.470  -9.406  0.00  0.00     0.051 C 
HETATM   27  C   UNK     0     -20.036 -14.394 -11.722  0.00  0.00    -0.027 A 
HETATM   28  C   UNK     0     -17.141 -13.834  -9.500  0.00  0.00     0.115 C 
HETATM   29  H   UNK     0     -16.049 -11.366 -10.682  0.00  0.00     0.165 HD
HETATM   30  H   UNK     0     -18.669  -9.210 -10.651  0.00  0.00     0.165 HD
HETATM   31  H   UNK     0     -19.723 -10.564 -12.141  0.00  0.00     0.165 HD
HETATM   32  H   UNK     0     -17.206 -12.712 -12.224  0.00  0.00     0.165 HD
ENDROOT
BRANCH   6  33
HETATM   33  C   UNK     0     -17.228  -9.914  -6.315  0.00  0.00     0.051 C 
BRANCH  33  34
HETATM   34  C   UNK     0     -18.609  -9.305  -6.323  0.00  0.00     0.114 C 
BRANCH  34  35
HETATM   35  C   UNK     0     -18.534  -8.018  -5.573  0.00  0.00     0.139 C 
HETATM   36  O   UNK     0     -19.478  -7.179  -5.650  0.00  0.00    -0.650 OA
BRANCH  35  37
HETATM   37  O   UNK     0     -17.452  -7.682  -4.768  0.00  0.00    -0.776 OA
HETATM   38  H   UNK     0     -16.857  -6.895  -4.973  0.00  0.00     0.167 HD
ENDBRANCH  35  37
ENDBRANCH  34  35
ENDBRANCH  33  34
ENDBRANCH   6  33
BRANCH  27  39
HETATM   39  C   UNK     0     -21.346 -15.037 -12.012  0.00  0.00     0.051 C 
BRANCH  39  40
HETATM   40  C   UNK     0     -22.439 -14.197 -12.502  0.00  0.00     0.114 C 
BRANCH  40  41
HETATM   41  C   UNK     0     -23.688 -14.064 -11.787  0.00  0.00     0.139 C 
HETATM   42  O   UNK     0     -23.945 -14.673 -10.740  0.00  0.00    -0.650 OA
BRANCH  41  43
HETATM   43  O   UNK     0     -24.688 -13.190 -12.300  0.00  0.00    -0.776 OA
HETATM   44  H   UNK     0     -25.174 -13.543 -13.117  0.00  0.00     0.167 HD
ENDBRANCH  41  43
ENDBRANCH  40  41
ENDBRANCH  39  40
ENDBRANCH  27  39
BRANCH  11  45
HETATM   45  C   UNK     0     -16.208  -6.268 -13.442  0.00  0.00     0.051 C 
BRANCH  45  46
HETATM   46  C   UNK     0     -15.334  -6.931 -14.444  0.00  0.00     0.114 C 
BRANCH  46  47
HETATM   47  C   UNK     0     -14.097  -6.108 -14.563  0.00  0.00     0.139 C 
HETATM   48  O   UNK     0     -13.051  -6.534 -14.054  0.00  0.00    -0.650 OA
BRANCH  47  49
HETATM   49  O   UNK     0     -14.115  -4.904 -15.221  0.00  0.00    -0.776 OA
HETATM   50  H   UNK     0     -13.316  -4.575 -15.777  0.00  0.00     0.167 HD
ENDBRANCH  47  49
ENDBRANCH  46  47
ENDBRANCH  45  46
ENDBRANCH  11  45
BRANCH  18  51
HETATM   51  C   UNK     0     -18.978 -11.824 -16.640  0.00  0.00     0.051 C 
BRANCH  51  52
HETATM   52  C   UNK     0     -17.566 -12.390 -16.679  0.00  0.00     0.114 C 
BRANCH  52  53
HETATM   53  C   UNK     0     -16.813 -11.908 -17.853  0.00  0.00     0.139 C 
HETATM   54  O   UNK     0     -16.890 -12.516 -18.933  0.00  0.00    -0.650 OA
BRANCH  53  55
HETATM   55  O   UNK     0     -16.026 -10.788 -17.743  0.00  0.00    -0.776 OA
HETATM   56  H   UNK     0     -16.286  -9.864 -17.996  0.00  0.00     0.167 HD
ENDBRANCH  53  55
ENDBRANCH  52  53
ENDBRANCH  51  52
ENDBRANCH  18  51
TORSDOF 16
ENDMDL
MODEL 11
REMARK VINA RESULT:      -8.7      2.809      7.315
REMARK  16 active torsions:
REMARK  status: ('A' for Active; 'I' for Inactive)
REMARK    1  A    between atoms: C_6  and  C_7 
REMARK    2  A    between atoms: C_7  and  C_8 
REMARK    3  A    between atoms: C_8  and  C_9 
REMARK    4  A    between atoms: C_9  and  O_11 
REMARK    5  A    between atoms: C_16  and  C_17 
REMARK    6  A    between atoms: C_17  and  C_18 
REMARK    7  A    between atoms: C_18  and  C_19 
REMARK    8  A    between atoms: C_19  and  O_21 
REMARK    9  A    between atoms: C_28  and  C_29 
REMARK   10  A    between atoms: C_29  and  C_30 
REMARK   11  A    between atoms: C_30  and  C_31 
REMARK   12  A    between atoms: C_31  and  O_33 
REMARK   13  A    between atoms: C_42  and  C_43 
REMARK   14  A    between atoms: C_43  and  C_44 
REMARK   15  A    between atoms: C_44  and  C_45 
REMARK   16  A    between atoms: C_45  and  O_47 
ROOT
HETATM    1  C   UNK     0     -15.141  -4.573 -14.923  0.00  0.00     0.051 C 
HETATM    2  C   UNK     0     -15.701  -5.913 -15.354  0.00  0.00    -0.031 A 
HETATM    3  C   UNK     0     -15.286  -7.191 -15.012  0.00  0.00     0.021 A 
HETATM    4  N   UNK     0     -16.061  -8.094 -15.659  0.00  0.00    -0.361 N 
HETATM    5  C   UNK     0     -16.967  -7.420 -16.398  0.00  0.00     0.022 A 
HETATM    6  C   UNK     0     -16.768  -6.054 -16.232  0.00  0.00    -0.027 A 
HETATM    7  C   UNK     0     -18.104  -7.943 -17.219  0.00  0.00     0.115 C 
HETATM    8  C   UNK     0     -18.924  -9.067 -16.610  0.00  0.00     0.021 A 
HETATM    9  N   UNK     0     -19.254  -9.260 -15.324  0.00  0.00    -0.361 N 
HETATM   10  C   UNK     0     -19.910 -10.435 -15.231  0.00  0.00     0.022 A 
HETATM   11  C   UNK     0     -20.015 -11.011 -16.494  0.00  0.00    -0.027 A 
HETATM   12  C   UNK     0     -19.396 -10.154 -17.367  0.00  0.00    -0.031 A 
HETATM   13  C   UNK     0     -19.268 -10.368 -18.859  0.00  0.00     0.051 C 
HETATM   14  C   UNK     0     -20.417 -11.086 -13.947  0.00  0.00     0.115 C 
HETATM   15  C   UNK     0     -19.319 -11.406 -12.945  0.00  0.00     0.021 A 
HETATM   16  N   UNK     0     -18.450 -10.550 -12.377  0.00  0.00    -0.361 N 
HETATM   17  C   UNK     0     -17.600 -11.234 -11.608  0.00  0.00     0.022 A 
HETATM   18  C   UNK     0     -17.938 -12.600 -11.670  0.00  0.00    -0.027 A 
HETATM   19  C   UNK     0     -19.017 -12.695 -12.509  0.00  0.00    -0.031 A 
HETATM   20  C   UNK     0     -19.727 -13.998 -12.828  0.00  0.00     0.051 C 
HETATM   21  C   UNK     0     -16.402 -10.755 -10.819  0.00  0.00     0.115 C 
HETATM   22  C   UNK     0     -15.603  -9.608 -11.391  0.00  0.00     0.022 A 
HETATM   23  N   UNK     0     -15.264  -9.388 -12.668  0.00  0.00    -0.361 N 
HETATM   24  C   UNK     0     -14.679  -8.176 -12.748  0.00  0.00     0.021 A 
HETATM   25  C   UNK     0     -14.632  -7.605 -11.491  0.00  0.00    -0.031 A 
HETATM   26  C   UNK     0     -14.038  -6.277 -11.068  0.00  0.00     0.051 C 
HETATM   27  C   UNK     0     -15.218  -8.503 -10.605  0.00  0.00    -0.027 A 
HETATM   28  C   UNK     0     -14.209  -7.451 -13.998  0.00  0.00     0.115 C 
HETATM   29  H   UNK     0     -15.938  -9.201 -15.619  0.00  0.00     0.165 HD
HETATM   30  H   UNK     0     -19.068  -8.544 -14.486  0.00  0.00     0.165 HD
HETATM   31  H   UNK     0     -18.465  -9.434 -12.483  0.00  0.00     0.165 HD
HETATM   32  H   UNK     0     -15.394 -10.107 -13.518  0.00  0.00     0.165 HD
ENDROOT
BRANCH   6  33
HETATM   33  C   UNK     0     -17.504  -4.886 -16.840  0.00  0.00     0.051 C 
BRANCH  33  34
HETATM   34  C   UNK     0     -16.592  -4.093 -17.746  0.00  0.00     0.114 C 
BRANCH  34  35
HETATM   35  C   UNK     0     -17.122  -4.220 -19.134  0.00  0.00     0.139 C 
HETATM   36  O   UNK     0     -17.656  -5.303 -19.516  0.00  0.00    -0.650 OA
BRANCH  35  37
HETATM   37  O   UNK     0     -17.062  -3.184 -20.058  0.00  0.00    -0.776 OA
HETATM   38  H   UNK     0     -16.354  -2.468 -20.013  0.00  0.00     0.167 HD
ENDBRANCH  35  37
ENDBRANCH  34  35
ENDBRANCH  33  34
ENDBRANCH   6  33
BRANCH  27  39
HETATM   39  C   UNK     0     -15.287  -8.265  -9.138  0.00  0.00     0.051 C 
BRANCH  39  40
HETATM   40  C   UNK     0     -16.508  -7.680  -8.586  0.00  0.00     0.114 C 
BRANCH  40  41
HETATM   41  C   UNK     0     -17.219  -8.281  -7.480  0.00  0.00     0.139 C 
HETATM   42  O   UNK     0     -17.269  -7.782  -6.347  0.00  0.00    -0.650 OA
BRANCH  41  43
HETATM   43  O   UNK     0     -17.904  -9.512  -7.685  0.00  0.00    -0.776 OA
HETATM   44  H   UNK     0     -18.911  -9.451  -7.597  0.00  0.00     0.167 HD
ENDBRANCH  41  43
ENDBRANCH  40  41
ENDBRANCH  39  40
ENDBRANCH  27  39
BRANCH  11  45
HETATM   45  C   UNK     0     -20.667 -12.309 -16.886  0.00  0.00     0.051 C 
BRANCH  45  46
HETATM   46  C   UNK     0     -19.779 -13.494 -16.768  0.00  0.00     0.114 C 
BRANCH  46  47
HETATM   47  C   UNK     0     -20.639 -14.705 -16.893  0.00  0.00     0.139 C 
HETATM   48  O   UNK     0     -21.130 -15.192 -15.864  0.00  0.00    -0.650 OA
BRANCH  47  49
HETATM   49  O   UNK     0     -20.883 -15.271 -18.119  0.00  0.00    -0.776 OA
HETATM   50  H   UNK     0     -21.597 -15.997 -18.252  0.00  0.00     0.167 HD
ENDBRANCH  47  49
ENDBRANCH  46  47
ENDBRANCH  45  46
ENDBRANCH  11  45
BRANCH  18  51
HETATM   51  C   UNK     0     -17.281 -13.751 -10.951  0.00  0.00     0.051 C 
BRANCH  51  52
HETATM   52  C   UNK     0     -18.025 -13.910  -9.634  0.00  0.00     0.114 C 
BRANCH  52  53
HETATM   53  C   UNK     0     -17.216 -13.452  -8.487  0.00  0.00     0.139 C 
HETATM   54  O   UNK     0     -17.490 -12.382  -7.922  0.00  0.00    -0.650 OA
BRANCH  53  55
HETATM   55  O   UNK     0     -16.159 -14.215  -8.053  0.00  0.00    -0.776 OA
HETATM   56  H   UNK     0     -15.499 -13.957  -7.359  0.00  0.00     0.167 HD
ENDBRANCH  53  55
ENDBRANCH  52  53
ENDBRANCH  51  52
ENDBRANCH  18  51
TORSDOF 16
ENDMDL
MODEL 12
REMARK VINA RESULT:      -8.6      4.185      6.674
REMARK  16 active torsions:
REMARK  status: ('A' for Active; 'I' for Inactive)
REMARK    1  A    between atoms: C_6  and  C_7 
REMARK    2  A    between atoms: C_7  and  C_8 
REMARK    3  A    between atoms: C_8  and  C_9 
REMARK    4  A    between atoms: C_9  and  O_11 
REMARK    5  A    between atoms: C_16  and  C_17 
REMARK    6  A    between atoms: C_17  and  C_18 
REMARK    7  A    between atoms: C_18  and  C_19 
REMARK    8  A    between atoms: C_19  and  O_21 
REMARK    9  A    between atoms: C_28  and  C_29 
REMARK   10  A    between atoms: C_29  and  C_30 
REMARK   11  A    between atoms: C_30  and  C_31 
REMARK   12  A    between atoms: C_31  and  O_33 
REMARK   13  A    between atoms: C_42  and  C_43 
REMARK   14  A    between atoms: C_43  and  C_44 
REMARK   15  A    between atoms: C_44  and  C_45 
REMARK   16  A    between atoms: C_45  and  O_47 
ROOT
HETATM    1  C   UNK     0     -19.055 -12.820 -13.706  0.00  0.00     0.051 C 
HETATM    2  C   UNK     0     -19.321 -11.763 -14.759  0.00  0.00    -0.031 A 
HETATM    3  C   UNK     0     -19.590 -10.412 -14.601  0.00  0.00     0.021 A 
HETATM    4  N   UNK     0     -19.793  -9.857 -15.819  0.00  0.00    -0.361 N 
HETATM    5  C   UNK     0     -19.652 -10.823 -16.751  0.00  0.00     0.022 A 
HETATM    6  C   UNK     0     -19.358 -12.028 -16.121  0.00  0.00    -0.027 A 
HETATM    7  C   UNK     0     -19.683 -10.717 -18.243  0.00  0.00     0.115 C 
HETATM    8  C   UNK     0     -18.955  -9.535 -18.859  0.00  0.00     0.021 A 
HETATM    9  N   UNK     0     -17.818  -8.950 -18.452  0.00  0.00    -0.361 N 
HETATM   10  C   UNK     0     -17.593  -7.878 -19.242  0.00  0.00     0.022 A 
HETATM   11  C   UNK     0     -18.607  -7.777 -20.189  0.00  0.00    -0.027 A 
HETATM   12  C   UNK     0     -19.469  -8.817 -19.953  0.00  0.00    -0.031 A 
HETATM   13  C   UNK     0     -20.723  -9.110 -20.746  0.00  0.00     0.051 C 
HETATM   14  C   UNK     0     -16.445  -6.882 -19.103  0.00  0.00     0.115 C 
HETATM   15  C   UNK     0     -16.431  -6.140 -17.776  0.00  0.00     0.021 A 
HETATM   16  N   UNK     0     -16.356  -6.669 -16.541  0.00  0.00    -0.361 N 
HETATM   17  C   UNK     0     -16.443  -5.689 -15.638  0.00  0.00     0.022 A 
HETATM   18  C   UNK     0     -16.572  -4.462 -16.319  0.00  0.00    -0.027 A 
HETATM   19  C   UNK     0     -16.562  -4.758 -17.657  0.00  0.00    -0.031 A 
HETATM   20  C   UNK     0     -16.643  -3.712 -18.753  0.00  0.00     0.051 C 
HETATM   21  C   UNK     0     -16.482  -5.759 -14.128  0.00  0.00     0.115 C 
HETATM   22  C   UNK     0     -17.164  -6.953 -13.503  0.00  0.00     0.022 A 
HETATM   23  N   UNK     0     -18.295  -7.559 -13.888  0.00  0.00    -0.361 N 
HETATM   24  C   UNK     0     -18.458  -8.667 -13.138  0.00  0.00     0.021 A 
HETATM   25  C   UNK     0     -17.413  -8.772 -12.240  0.00  0.00    -0.031 A 
HETATM   26  C   UNK     0     -17.177  -9.816 -11.169  0.00  0.00     0.051 C 
HETATM   27  C   UNK     0     -16.572  -7.686 -12.454  0.00  0.00    -0.027 A 
HETATM   28  C   UNK     0     -19.541  -9.725 -13.265  0.00  0.00     0.115 C 
HETATM   29  H   UNK     0     -20.075  -8.796 -16.010  0.00  0.00     0.165 HD
HETATM   30  H   UNK     0     -17.145  -9.319 -17.640  0.00  0.00     0.165 HD
HETATM   31  H   UNK     0     -16.190  -7.751 -16.300  0.00  0.00     0.165 HD
HETATM   32  H   UNK     0     -19.011  -7.186 -14.666  0.00  0.00     0.165 HD
ENDROOT
BRANCH   6  33
HETATM   33  C   UNK     0     -19.116 -13.395 -16.709  0.00  0.00     0.051 C 
BRANCH  33  34
HETATM   34  C   UNK     0     -20.377 -13.936 -17.341  0.00  0.00     0.114 C 
BRANCH  34  35
HETATM   35  C   UNK     0     -19.968 -14.949 -18.357  0.00  0.00     0.139 C 
HETATM   36  O   UNK     0     -18.814 -15.467 -18.311  0.00  0.00    -0.650 OA
BRANCH  35  37
HETATM   37  O   UNK     0     -20.810 -15.367 -19.380  0.00  0.00    -0.776 OA
HETATM   38  H   UNK     0     -21.265 -16.265 -19.365  0.00  0.00     0.167 HD
ENDBRANCH  35  37
ENDBRANCH  34  35
ENDBRANCH  33  34
ENDBRANCH   6  33
BRANCH  27  39
HETATM   39  C   UNK     0     -15.367  -7.417 -11.623  0.00  0.00     0.051 C 
BRANCH  39  40
HETATM   40  C   UNK     0     -15.553  -6.804 -10.309  0.00  0.00     0.114 C 
BRANCH  40  41
HETATM   41  C   UNK     0     -15.129  -5.451 -10.023  0.00  0.00     0.139 C 
HETATM   42  O   UNK     0     -15.380  -4.867  -8.960  0.00  0.00    -0.650 OA
BRANCH  41  43
HETATM   43  O   UNK     0     -14.382  -4.739 -11.003  0.00  0.00    -0.776 OA
HETATM   44  H   UNK     0     -13.644  -4.157 -10.626  0.00  0.00     0.167 HD
ENDBRANCH  41  43
ENDBRANCH  40  41
ENDBRANCH  39  40
ENDBRANCH  27  39
BRANCH  11  45
HETATM   45  C   UNK     0     -18.778  -6.754 -21.281  0.00  0.00     0.051 C 
BRANCH  45  46
HETATM   46  C   UNK     0     -17.710  -6.786 -22.313  0.00  0.00     0.114 C 
BRANCH  46  47
HETATM   47  C   UNK     0     -17.493  -5.382 -22.766  0.00  0.00     0.139 C 
HETATM   48  O   UNK     0     -16.619  -4.707 -22.205  0.00  0.00    -0.650 OA
BRANCH  47  49
HETATM   49  O   UNK     0     -18.244  -4.847 -23.782  0.00  0.00    -0.776 OA
HETATM   50  H   UNK     0     -17.930  -4.865 -24.760  0.00  0.00     0.167 HD
ENDBRANCH  47  49
ENDBRANCH  46  47
ENDBRANCH  45  46
ENDBRANCH  11  45
BRANCH  18  51
HETATM   51  C   UNK     0     -16.677  -3.081 -15.726  0.00  0.00     0.051 C 
BRANCH  51  52
HETATM   52  C   UNK     0     -15.421  -2.878 -14.891  0.00  0.00     0.114 C 
BRANCH  52  53
HETATM   53  C   UNK     0     -15.692  -2.091 -13.673  0.00  0.00     0.139 C 
HETATM   54  O   UNK     0     -16.279  -1.000 -13.755  0.00  0.00    -0.650 OA
BRANCH  53  55
HETATM   55  O   UNK     0     -15.288  -2.570 -12.451  0.00  0.00    -0.776 OA
HETATM   56  H   UNK     0     -15.743  -3.275 -11.920  0.00  0.00     0.167 HD
ENDBRANCH  53  55
ENDBRANCH  52  53
ENDBRANCH  51  52
ENDBRANCH  18  51
TORSDOF 16
ENDMDL
MODEL 13
REMARK VINA RESULT:      -8.6     26.030     29.659
REMARK  16 active torsions:
REMARK  status: ('A' for Active; 'I' for Inactive)
REMARK    1  A    between atoms: C_6  and  C_7 
REMARK    2  A    between atoms: C_7  and  C_8 
REMARK    3  A    between atoms: C_8  and  C_9 
REMARK    4  A    between atoms: C_9  and  O_11 
REMARK    5  A    between atoms: C_16  and  C_17 
REMARK    6  A    between atoms: C_17  and  C_18 
REMARK    7  A    between atoms: C_18  and  C_19 
REMARK    8  A    between atoms: C_19  and  O_21 
REMARK    9  A    between atoms: C_28  and  C_29 
REMARK   10  A    between atoms: C_29  and  C_30 
REMARK   11  A    between atoms: C_30  and  C_31 
REMARK   12  A    between atoms: C_31  and  O_33 
REMARK   13  A    between atoms: C_42  and  C_43 
REMARK   14  A    between atoms: C_43  and  C_44 
REMARK   15  A    between atoms: C_44  and  C_45 
REMARK   16  A    between atoms: C_45  and  O_47 
ROOT
HETATM    1  C   UNK     0       1.532 -27.618 -14.312  0.00  0.00     0.051 C 
HETATM    2  C   UNK     0       2.693 -27.657 -13.339  0.00  0.00    -0.031 A 
HETATM    3  C   UNK     0       4.053 -27.738 -13.594  0.00  0.00     0.021 A 
HETATM    4  N   UNK     0       4.721 -27.777 -12.417  0.00  0.00    -0.361 N 
HETATM    5  C   UNK     0       3.818 -27.713 -11.417  0.00  0.00     0.022 A 
HETATM    6  C   UNK     0       2.538 -27.640 -11.958  0.00  0.00    -0.027 A 
HETATM    7  C   UNK     0       4.038 -27.628  -9.939  0.00  0.00     0.115 C 
HETATM    8  C   UNK     0       5.141 -26.698  -9.466  0.00  0.00     0.021 A 
HETATM    9  N   UNK     0       5.518 -25.518  -9.983  0.00  0.00    -0.361 N 
HETATM   10  C   UNK     0       6.599 -25.087  -9.299  0.00  0.00     0.022 A 
HETATM   11  C   UNK     0       6.922 -26.010  -8.309  0.00  0.00    -0.027 A 
HETATM   12  C   UNK     0       6.007 -27.027  -8.409  0.00  0.00    -0.031 A 
HETATM   13  C   UNK     0       5.965 -28.254  -7.526  0.00  0.00     0.051 C 
HETATM   14  C   UNK     0       7.400 -23.820  -9.585  0.00  0.00     0.115 C 
HETATM   15  C   UNK     0       8.030 -23.788 -10.968  0.00  0.00     0.021 A 
HETATM   16  N   UNK     0       7.405 -23.874 -12.158  0.00  0.00    -0.361 N 
HETATM   17  C   UNK     0       8.317 -23.879 -13.133  0.00  0.00     0.022 A 
HETATM   18  C   UNK     0       9.597 -23.783 -12.551  0.00  0.00    -0.027 A 
HETATM   19  C   UNK     0       9.403 -23.726 -11.196  0.00  0.00    -0.031 A 
HETATM   20  C   UNK     0      10.529 -23.580 -10.188  0.00  0.00     0.051 C 
HETATM   21  C   UNK     0       8.141 -24.029 -14.627  0.00  0.00     0.115 C 
HETATM   22  C   UNK     0       7.019 -24.918 -15.111  0.00  0.00     0.022 A 
HETATM   23  N   UNK     0       6.619 -26.095 -14.614  0.00  0.00    -0.361 N 
HETATM   24  C   UNK     0       5.495 -26.467 -15.259  0.00  0.00     0.021 A 
HETATM   25  C   UNK     0       5.169 -25.511 -16.201  0.00  0.00    -0.031 A 
HETATM   26  C   UNK     0       4.024 -25.501 -17.192  0.00  0.00     0.051 C 
HETATM   27  C   UNK     0       6.130 -24.509 -16.126  0.00  0.00    -0.027 A 
HETATM   28  C   UNK     0       4.624 -27.680 -14.983  0.00  0.00     0.115 C 
HETATM   29  H   UNK     0       5.824 -27.888 -12.300  0.00  0.00     0.165 HD
HETATM   30  H   UNK     0       4.992 -24.962 -10.798  0.00  0.00     0.165 HD
HETATM   31  H   UNK     0       6.295 -23.882 -12.316  0.00  0.00     0.165 HD
HETATM   32  H   UNK     0       7.152 -26.696 -13.832  0.00  0.00     0.165 HD
ENDROOT
BRANCH   6  33
HETATM   33  C   UNK     0       1.198 -27.559 -11.273  0.00  0.00     0.051 C 
BRANCH  33  34
HETATM   34  C   UNK     0       0.643 -28.941 -11.019  0.00  0.00     0.114 C 
BRANCH  34  35
HETATM   35  C   UNK     0       0.548 -29.120  -9.542  0.00  0.00     0.139 C 
HETATM   36  O   UNK     0       0.333 -30.266  -9.051  0.00  0.00    -0.650 OA
BRANCH  35  37
HETATM   37  O   UNK     0       0.688 -28.064  -8.649  0.00  0.00    -0.776 OA
HETATM   38  H   UNK     0       0.090 -27.255  -8.679  0.00  0.00     0.167 HD
ENDBRANCH  35  37
ENDBRANCH  34  35
ENDBRANCH  33  34
ENDBRANCH   6  33
BRANCH  27  39
HETATM   39  C   UNK     0       6.152 -23.337 -17.043  0.00  0.00     0.051 C 
BRANCH  39  40
HETATM   40  C   UNK     0       7.077 -23.360 -18.176  0.00  0.00     0.114 C 
BRANCH  40  41
HETATM   41  C   UNK     0       7.069 -24.423 -19.156  0.00  0.00     0.139 C 
HETATM   42  O   UNK     0       6.309 -24.445 -20.134  0.00  0.00    -0.650 OA
BRANCH  41  43
HETATM   43  O   UNK     0       7.976 -25.510 -19.003  0.00  0.00    -0.776 OA
HETATM   44  H   UNK     0       8.553 -25.691 -19.816  0.00  0.00     0.167 HD
ENDBRANCH  41  43
ENDBRANCH  40  41
ENDBRANCH  39  40
ENDBRANCH  27  39
BRANCH  11  45
HETATM   45  C   UNK     0       8.037 -25.957  -7.300  0.00  0.00     0.051 C 
BRANCH  45  46
HETATM   46  C   UNK     0       9.396 -26.045  -7.892  0.00  0.00     0.114 C 
BRANCH  46  47
HETATM   47  C   UNK     0       9.659 -27.483  -8.183  0.00  0.00     0.139 C 
HETATM   48  O   UNK     0       9.677 -28.285  -7.238  0.00  0.00    -0.650 OA
BRANCH  47  49
HETATM   49  O   UNK     0       9.878 -27.912  -9.468  0.00  0.00    -0.776 OA
HETATM   50  H   UNK     0      10.605 -28.601  -9.696  0.00  0.00     0.167 HD
ENDBRANCH  47  49
ENDBRANCH  46  47
ENDBRANCH  45  46
ENDBRANCH  11  45
BRANCH  18  51
HETATM   51  C   UNK     0      10.930 -23.728 -13.251  0.00  0.00     0.051 C 
BRANCH  51  52
HETATM   52  C   UNK     0      11.101 -22.293 -13.729  0.00  0.00     0.114 C 
BRANCH  52  53
HETATM   53  C   UNK     0      12.075 -21.552 -12.905  0.00  0.00     0.139 C 
HETATM   54  O   UNK     0      12.909 -22.168 -12.224  0.00  0.00    -0.650 OA
BRANCH  53  55
HETATM   55  O   UNK     0      12.049 -20.178 -12.895  0.00  0.00    -0.776 OA
HETATM   56  H   UNK     0      12.529 -19.590 -12.255  0.00  0.00     0.167 HD
ENDBRANCH  53  55
ENDBRANCH  52  53
ENDBRANCH  51  52
ENDBRANCH  18  51
TORSDOF 16
ENDMDL
MODEL 14
REMARK VINA RESULT:      -8.6      2.815      9.389
REMARK  16 active torsions:
REMARK  status: ('A' for Active; 'I' for Inactive)
REMARK    1  A    between atoms: C_6  and  C_7 
REMARK    2  A    between atoms: C_7  and  C_8 
REMARK    3  A    between atoms: C_8  and  C_9 
REMARK    4  A    between atoms: C_9  and  O_11 
REMARK    5  A    between atoms: C_16  and  C_17 
REMARK    6  A    between atoms: C_17  and  C_18 
REMARK    7  A    between atoms: C_18  and  C_19 
REMARK    8  A    between atoms: C_19  and  O_21 
REMARK    9  A    between atoms: C_28  and  C_29 
REMARK   10  A    between atoms: C_29  and  C_30 
REMARK   11  A    between atoms: C_30  and  C_31 
REMARK   12  A    between atoms: C_31  and  O_33 
REMARK   13  A    between atoms: C_42  and  C_43 
REMARK   14  A    between atoms: C_43  and  C_44 
REMARK   15  A    between atoms: C_44  and  C_45 
REMARK   16  A    between atoms: C_45  and  O_47 
ROOT
HETATM    1  C   UNK     0     -16.865  -6.840 -13.940  0.00  0.00     0.051 C 
HETATM    2  C   UNK     0     -17.242  -7.766 -12.802  0.00  0.00    -0.031 A 
HETATM    3  C   UNK     0     -18.469  -8.336 -12.501  0.00  0.00     0.021 A 
HETATM    4  N   UNK     0     -18.348  -9.073 -11.371  0.00  0.00    -0.361 N 
HETATM    5  C   UNK     0     -17.069  -8.992 -10.951  0.00  0.00     0.022 A 
HETATM    6  C   UNK     0     -16.349  -8.181 -11.822  0.00  0.00    -0.027 A 
HETATM    7  C   UNK     0     -16.395  -9.692  -9.812  0.00  0.00     0.115 C 
HETATM    8  C   UNK     0     -16.729 -11.161  -9.622  0.00  0.00     0.021 A 
HETATM    9  N   UNK     0     -16.975 -12.091 -10.558  0.00  0.00    -0.361 N 
HETATM   10  C   UNK     0     -17.317 -13.237  -9.931  0.00  0.00     0.022 A 
HETATM   11  C   UNK     0     -17.282 -13.042  -8.553  0.00  0.00    -0.027 A 
HETATM   12  C   UNK     0     -16.912 -11.737  -8.351  0.00  0.00    -0.031 A 
HETATM   13  C   UNK     0     -16.738 -11.076  -7.002  0.00  0.00     0.051 C 
HETATM   14  C   UNK     0     -17.741 -14.540 -10.603  0.00  0.00     0.115 C 
HETATM   15  C   UNK     0     -18.992 -14.414 -11.456  0.00  0.00     0.021 A 
HETATM   16  N   UNK     0     -19.189 -13.600 -12.510  0.00  0.00    -0.361 N 
HETATM   17  C   UNK     0     -20.445 -13.738 -12.942  0.00  0.00     0.022 A 
HETATM   18  C   UNK     0     -21.094 -14.695 -12.137  0.00  0.00    -0.027 A 
HETATM   19  C   UNK     0     -20.173 -15.111 -11.211  0.00  0.00    -0.031 A 
HETATM   20  C   UNK     0     -20.451 -16.174 -10.163  0.00  0.00     0.051 C 
HETATM   21  C   UNK     0     -21.180 -13.006 -14.042  0.00  0.00     0.115 C 
HETATM   22  C   UNK     0     -20.826 -11.555 -14.271  0.00  0.00     0.022 A 
HETATM   23  N   UNK     0     -20.573 -10.608 -13.359  0.00  0.00    -0.361 N 
HETATM   24  C   UNK     0     -20.159  -9.499 -14.003  0.00  0.00     0.021 A 
HETATM   25  C   UNK     0     -20.155  -9.734 -15.365  0.00  0.00    -0.031 A 
HETATM   26  C   UNK     0     -19.809  -8.787 -16.495  0.00  0.00     0.051 C 
HETATM   27  C   UNK     0     -20.579 -11.043 -15.561  0.00  0.00    -0.027 A 
HETATM   28  C   UNK     0     -19.670  -8.197 -13.393  0.00  0.00     0.115 C 
HETATM   29  H   UNK     0     -19.177  -9.612 -10.857  0.00  0.00     0.165 HD
HETATM   30  H   UNK     0     -16.859 -11.956 -11.661  0.00  0.00     0.165 HD
HETATM   31  H   UNK     0     -18.412 -12.949 -12.990  0.00  0.00     0.165 HD
HETATM   32  H   UNK     0     -20.725 -10.700 -12.252  0.00  0.00     0.165 HD
ENDROOT
BRANCH   6  33
HETATM   33  C   UNK     0     -14.898  -7.772 -11.792  0.00  0.00     0.051 C 
BRANCH  33  34
HETATM   34  C   UNK     0     -14.074  -8.658 -12.695  0.00  0.00     0.114 C 
BRANCH  34  35
HETATM   35  C   UNK     0     -13.130  -7.779 -13.443  0.00  0.00     0.139 C 
HETATM   36  O   UNK     0     -13.412  -7.391 -14.613  0.00  0.00    -0.650 OA
BRANCH  35  37
HETATM   37  O   UNK     0     -11.923  -7.349 -12.906  0.00  0.00    -0.776 OA
HETATM   38  H   UNK     0     -11.658  -7.552 -11.955  0.00  0.00     0.167 HD
ENDBRANCH  35  37
ENDBRANCH  34  35
ENDBRANCH  33  34
ENDBRANCH   6  33
BRANCH  27  39
HETATM   39  C   UNK     0     -20.772 -11.639 -16.911  0.00  0.00     0.051 C 
BRANCH  39  40
HETATM   40  C   UNK     0     -19.613 -12.225 -17.583  0.00  0.00     0.114 C 
BRANCH  40  41
HETATM   41  C   UNK     0     -19.627 -12.565 -18.988  0.00  0.00     0.139 C 
HETATM   42  O   UNK     0     -19.782 -13.719 -19.411  0.00  0.00    -0.650 OA
BRANCH  41  43
HETATM   43  O   UNK     0     -19.455 -11.531 -19.951  0.00  0.00    -0.776 OA
HETATM   44  H   UNK     0     -19.362 -10.603 -19.557  0.00  0.00     0.167 HD
ENDBRANCH  41  43
ENDBRANCH  40  41
ENDBRANCH  39  40
ENDBRANCH  27  39
BRANCH  11  45
HETATM   45  C   UNK     0     -17.576 -14.028  -7.455  0.00  0.00     0.051 C 
BRANCH  45  46
HETATM   46  C   UNK     0     -16.605 -15.149  -7.370  0.00  0.00     0.114 C 
BRANCH  46  47
HETATM   47  C   UNK     0     -17.376 -16.415  -7.533  0.00  0.00     0.139 C 
HETATM   48  O   UNK     0     -16.896 -17.314  -8.236  0.00  0.00    -0.650 OA
BRANCH  47  49
HETATM   49  O   UNK     0     -18.592 -16.581  -6.919  0.00  0.00    -0.776 OA
HETATM   50  H   UNK     0     -18.760 -16.282  -5.951  0.00  0.00     0.167 HD
ENDBRANCH  47  49
ENDBRANCH  46  47
ENDBRANCH  45  46
ENDBRANCH  11  45
BRANCH  18  51
HETATM   51  C   UNK     0     -22.509 -15.200 -12.257  0.00  0.00     0.051 C 
BRANCH  51  52
HETATM   52  C   UNK     0     -23.269 -14.623 -11.073  0.00  0.00     0.114 C 
BRANCH  52  53
HETATM   53  C   UNK     0     -24.357 -13.723 -11.504  0.00  0.00     0.139 C 
HETATM   54  O   UNK     0     -24.298 -13.163 -12.610  0.00  0.00    -0.650 OA
BRANCH  53  55
HETATM   55  O   UNK     0     -25.429 -13.507 -10.674  0.00  0.00    -0.776 OA
HETATM   56  H   UNK     0     -25.590 -13.950  -9.800  0.00  0.00     0.167 HD
ENDBRANCH  53  55
ENDBRANCH  52  53
ENDBRANCH  51  52
ENDBRANCH  18  51
TORSDOF 16
ENDMDL
MODEL 15
REMARK VINA RESULT:      -8.6      4.085      9.038
REMARK  16 active torsions:
REMARK  status: ('A' for Active; 'I' for Inactive)
REMARK    1  A    between atoms: C_6  and  C_7 
REMARK    2  A    between atoms: C_7  and  C_8 
REMARK    3  A    between atoms: C_8  and  C_9 
REMARK    4  A    between atoms: C_9  and  O_11 
REMARK    5  A    between atoms: C_16  and  C_17 
REMARK    6  A    between atoms: C_17  and  C_18 
REMARK    7  A    between atoms: C_18  and  C_19 
REMARK    8  A    between atoms: C_19  and  O_21 
REMARK    9  A    between atoms: C_28  and  C_29 
REMARK   10  A    between atoms: C_29  and  C_30 
REMARK   11  A    between atoms: C_30  and  C_31 
REMARK   12  A    between atoms: C_31  and  O_33 
REMARK   13  A    between atoms: C_42  and  C_43 
REMARK   14  A    between atoms: C_43  and  C_44 
REMARK   15  A    between atoms: C_44  and  C_45 
REMARK   16  A    between atoms: C_45  and  O_47 
ROOT
HETATM    1  C   UNK     0     -16.163  -8.924  -5.760  0.00  0.00     0.051 C 
HETATM    2  C   UNK     0     -16.608  -9.087  -7.199  0.00  0.00    -0.031 A 
HETATM    3  C   UNK     0     -17.182  -8.159  -8.053  0.00  0.00     0.021 A 
HETATM    4  N   UNK     0     -17.444  -8.755  -9.241  0.00  0.00    -0.361 N 
HETATM    5  C   UNK     0     -17.042 -10.041  -9.165  0.00  0.00     0.022 A 
HETATM    6  C   UNK     0     -16.516 -10.283  -7.900  0.00  0.00    -0.027 A 
HETATM    7  C   UNK     0     -17.021 -11.096 -10.226  0.00  0.00     0.115 C 
HETATM    8  C   UNK     0     -16.550 -10.668 -11.604  0.00  0.00     0.021 A 
HETATM    9  N   UNK     0     -15.596  -9.780 -11.923  0.00  0.00    -0.361 N 
HETATM   10  C   UNK     0     -15.578  -9.646 -13.266  0.00  0.00     0.022 A 
HETATM   11  C   UNK     0     -16.541 -10.479 -13.829  0.00  0.00    -0.027 A 
HETATM   12  C   UNK     0     -17.157 -11.126 -12.787  0.00  0.00    -0.031 A 
HETATM   13  C   UNK     0     -18.271 -12.139 -12.924  0.00  0.00     0.051 C 
HETATM   14  C   UNK     0     -14.694  -8.694 -14.066  0.00  0.00     0.115 C 
HETATM   15  C   UNK     0     -14.915  -7.226 -13.737  0.00  0.00     0.021 A 
HETATM   16  N   UNK     0     -14.784  -6.625 -12.540  0.00  0.00    -0.361 N 
HETATM   17  C   UNK     0     -15.135  -5.342 -12.653  0.00  0.00     0.022 A 
HETATM   18  C   UNK     0     -15.503  -5.093 -13.990  0.00  0.00    -0.027 A 
HETATM   19  C   UNK     0     -15.360  -6.281 -14.659  0.00  0.00    -0.031 A 
HETATM   20  C   UNK     0     -15.620  -6.450 -16.145  0.00  0.00     0.051 C 
HETATM   21  C   UNK     0     -15.232  -4.264 -11.597  0.00  0.00     0.115 C 
HETATM   22  C   UNK     0     -15.658  -4.683 -10.210  0.00  0.00     0.022 A 
HETATM   23  N   UNK     0     -16.602  -5.568  -9.863  0.00  0.00    -0.361 N 
HETATM   24  C   UNK     0     -16.548  -5.743  -8.527  0.00  0.00     0.021 A 
HETATM   25  C   UNK     0     -15.553  -4.943  -8.000  0.00  0.00    -0.031 A 
HETATM   26  C   UNK     0     -15.141  -4.763  -6.553  0.00  0.00     0.051 C 
HETATM   27  C   UNK     0     -14.969  -4.255  -9.057  0.00  0.00    -0.027 A 
HETATM   28  C   UNK     0     -17.356  -6.713  -7.684  0.00  0.00     0.115 C 
HETATM   29  H   UNK     0     -17.949  -8.274 -10.111  0.00  0.00     0.165 HD
HETATM   30  H   UNK     0     -14.899  -9.282 -11.205  0.00  0.00     0.165 HD
HETATM   31  H   UNK     0     -14.390  -7.103 -11.605  0.00  0.00     0.165 HD
HETATM   32  H   UNK     0     -17.344  -6.046 -10.554  0.00  0.00     0.165 HD
ENDROOT
BRANCH   6  33
HETATM   33  C   UNK     0     -15.942 -11.548  -7.314  0.00  0.00     0.051 C 
BRANCH  33  34
HETATM   34  C   UNK     0     -17.036 -12.409  -6.726  0.00  0.00     0.114 C 
BRANCH  34  35
HETATM   35  C   UNK     0     -17.070 -13.680  -7.504  0.00  0.00     0.139 C 
HETATM   36  O   UNK     0     -16.000 -14.315  -7.735  0.00  0.00    -0.650 OA
BRANCH  35  37
HETATM   37  O   UNK     0     -18.249 -14.223  -8.000  0.00  0.00    -0.776 OA
HETATM   38  H   UNK     0     -19.025 -13.646  -8.285  0.00  0.00     0.167 HD
ENDBRANCH  35  37
ENDBRANCH  34  35
ENDBRANCH  33  34
ENDBRANCH   6  33
BRANCH  27  39
HETATM   39  C   UNK     0     -13.899  -3.238  -8.870  0.00  0.00     0.051 C 
BRANCH  39  40
HETATM   40  C   UNK     0     -12.506  -3.665  -8.995  0.00  0.00     0.114 C 
BRANCH  40  41
HETATM   41  C   UNK     0     -12.087  -5.021  -8.718  0.00  0.00     0.139 C 
HETATM   42  O   UNK     0     -11.954  -5.888  -9.592  0.00  0.00    -0.650 OA
BRANCH  41  43
HETATM   43  O   UNK     0     -11.811  -5.397  -7.372  0.00  0.00    -0.776 OA
HETATM   44  H   UNK     0     -11.777  -4.623  -6.720  0.00  0.00     0.167 HD
ENDBRANCH  41  43
ENDBRANCH  40  41
ENDBRANCH  39  40
ENDBRANCH  27  39
BRANCH  11  45
HETATM   45  C   UNK     0     -16.883 -10.676 -15.281  0.00  0.00     0.051 C 
BRANCH  45  46
HETATM   46  C   UNK     0     -17.822  -9.662 -15.826  0.00  0.00     0.114 C 
BRANCH  46  47
HETATM   47  C   UNK     0     -17.514  -9.511 -17.277  0.00  0.00     0.139 C 
HETATM   48  O   UNK     0     -16.372  -9.782 -17.672  0.00  0.00    -0.650 OA
BRANCH  47  49
HETATM   49  O   UNK     0     -18.475  -9.080 -18.157  0.00  0.00    -0.776 OA
HETATM   50  H   UNK     0     -18.681  -8.083 -18.293  0.00  0.00     0.167 HD
ENDBRANCH  47  49
ENDBRANCH  46  47
ENDBRANCH  45  46
ENDBRANCH  11  45
BRANCH  18  51
HETATM   51  C   UNK     0     -15.947  -3.790 -14.602  0.00  0.00     0.051 C 
BRANCH  51  52
HETATM   52  C   UNK     0     -14.682  -3.085 -15.067  0.00  0.00     0.114 C 
BRANCH  52  53
HETATM   53  C   UNK     0     -14.547  -1.744 -14.465  0.00  0.00     0.139 C 
HETATM   54  O   UNK     0     -13.429  -1.325 -14.126  0.00  0.00    -0.650 OA
BRANCH  53  55
HETATM   55  O   UNK     0     -15.664  -0.967 -14.280  0.00  0.00    -0.776 OA
HETATM   56  H   UNK     0     -15.716  -0.140 -13.732  0.00  0.00     0.167 HD
ENDBRANCH  53  55
ENDBRANCH  52  53
ENDBRANCH  51  52
ENDBRANCH  18  51
TORSDOF 16
ENDMDL
MODEL 16
REMARK VINA RESULT:      -8.5      2.326      6.561
REMARK  16 active torsions:
REMARK  status: ('A' for Active; 'I' for Inactive)
REMARK    1  A    between atoms: C_6  and  C_7 
REMARK    2  A    between atoms: C_7  and  C_8 
REMARK    3  A    between atoms: C_8  and  C_9 
REMARK    4  A    between atoms: C_9  and  O_11 
REMARK    5  A    between atoms: C_16  and  C_17 
REMARK    6  A    between atoms: C_17  and  C_18 
REMARK    7  A    between atoms: C_18  and  C_19 
REMARK    8  A    between atoms: C_19  and  O_21 
REMARK    9  A    between atoms: C_28  and  C_29 
REMARK   10  A    between atoms: C_29  and  C_30 
REMARK   11  A    between atoms: C_30  and  C_31 
REMARK   12  A    between atoms: C_31  and  O_33 
REMARK   13  A    between atoms: C_42  and  C_43 
REMARK   14  A    between atoms: C_43  and  C_44 
REMARK   15  A    between atoms: C_44  and  C_45 
REMARK   16  A    between atoms: C_45  and  O_47 
ROOT
HETATM    1  C   UNK     0     -17.688  -9.245 -18.627  0.00  0.00     0.051 C 
HETATM    2  C   UNK     0     -17.966 -10.591 -17.989  0.00  0.00    -0.031 A 
HETATM    3  C   UNK     0     -17.209 -11.303 -17.072  0.00  0.00     0.021 A 
HETATM    4  N   UNK     0     -17.831 -12.475 -16.802  0.00  0.00    -0.361 N 
HETATM    5  C   UNK     0     -18.971 -12.523 -17.522  0.00  0.00     0.022 A 
HETATM    6  C   UNK     0     -19.086 -11.361 -18.277  0.00  0.00    -0.027 A 
HETATM    7  C   UNK     0     -20.057 -13.553 -17.517  0.00  0.00     0.115 C 
HETATM    8  C   UNK     0     -20.482 -14.088 -16.161  0.00  0.00     0.021 A 
HETATM    9  N   UNK     0     -20.561 -13.436 -14.991  0.00  0.00    -0.361 N 
HETATM   10  C   UNK     0     -20.894 -14.328 -14.035  0.00  0.00     0.022 A 
HETATM   11  C   UNK     0     -21.043 -15.589 -14.606  0.00  0.00    -0.027 A 
HETATM   12  C   UNK     0     -20.785 -15.445 -15.945  0.00  0.00    -0.031 A 
HETATM   13  C   UNK     0     -20.832 -16.557 -16.969  0.00  0.00     0.051 C 
HETATM   14  C   UNK     0     -21.033 -14.040 -12.542  0.00  0.00     0.115 C 
HETATM   15  C   UNK     0     -19.754 -13.538 -11.891  0.00  0.00     0.021 A 
HETATM   16  N   UNK     0     -19.043 -12.442 -12.216  0.00  0.00    -0.361 N 
HETATM   17  C   UNK     0     -17.948 -12.388 -11.454  0.00  0.00     0.022 A 
HETATM   18  C   UNK     0     -17.952 -13.496 -10.583  0.00  0.00    -0.027 A 
HETATM   19  C   UNK     0     -19.089 -14.207 -10.866  0.00  0.00    -0.031 A 
HETATM   20  C   UNK     0     -19.503 -15.467 -10.127  0.00  0.00     0.051 C 
HETATM   21  C   UNK     0     -16.799 -11.406 -11.472  0.00  0.00     0.115 C 
HETATM   22  C   UNK     0     -16.394 -10.831 -12.809  0.00  0.00     0.022 A 
HETATM   23  N   UNK     0     -16.310 -11.457 -13.990  0.00  0.00    -0.361 N 
HETATM   24  C   UNK     0     -16.054 -10.535 -14.940  0.00  0.00     0.021 A 
HETATM   25  C   UNK     0     -15.960  -9.287 -14.355  0.00  0.00    -0.031 A 
HETATM   26  C   UNK     0     -15.648  -7.953 -15.000  0.00  0.00     0.051 C 
HETATM   27  C   UNK     0     -16.174  -9.451 -12.991  0.00  0.00    -0.027 A 
HETATM   28  C   UNK     0     -15.963 -10.748 -16.442  0.00  0.00     0.115 C 
HETATM   29  H   UNK     0     -17.439 -13.279 -16.136  0.00  0.00     0.165 HD
HETATM   30  H   UNK     0     -20.432 -12.335 -14.845  0.00  0.00     0.165 HD
HETATM   31  H   UNK     0     -19.342 -11.665 -12.967  0.00  0.00     0.165 HD
HETATM   32  H   UNK     0     -16.388 -12.562 -14.159  0.00  0.00     0.165 HD
ENDROOT
BRANCH   6  33
HETATM   33  C   UNK     0     -20.163 -10.933 -19.242  0.00  0.00     0.051 C 
BRANCH  33  34
HETATM   34  C   UNK     0     -20.834  -9.667 -18.767  0.00  0.00     0.114 C 
BRANCH  34  35
HETATM   35  C   UNK     0     -21.916 -10.062 -17.821  0.00  0.00     0.139 C 
HETATM   36  O   UNK     0     -23.117 -10.125 -18.216  0.00  0.00    -0.650 OA
BRANCH  35  37
HETATM   37  O   UNK     0     -21.669 -10.377 -16.490  0.00  0.00    -0.776 OA
HETATM   38  H   UNK     0     -21.074 -11.145 -16.224  0.00  0.00     0.167 HD
ENDBRANCH  35  37
ENDBRANCH  34  35
ENDBRANCH  33  34
ENDBRANCH   6  33
BRANCH  27  39
HETATM   39  C   UNK     0     -16.080  -8.331 -12.016  0.00  0.00     0.051 C 
BRANCH  39  40
HETATM   40  C   UNK     0     -14.791  -8.078 -11.372  0.00  0.00     0.114 C 
BRANCH  40  41
HETATM   41  C   UNK     0     -14.592  -8.251  -9.951  0.00  0.00     0.139 C 
HETATM   42  O   UNK     0     -14.208  -7.345  -9.199  0.00  0.00    -0.650 OA
BRANCH  41  43
HETATM   43  O   UNK     0     -14.846  -9.525  -9.367  0.00  0.00    -0.776 OA
HETATM   44  H   UNK     0     -15.701  -9.967  -9.683  0.00  0.00     0.167 HD
ENDBRANCH  41  43
ENDBRANCH  40  41
ENDBRANCH  39  40
ENDBRANCH  27  39
BRANCH  11  45
HETATM   45  C   UNK     0     -21.413 -16.886 -13.940  0.00  0.00     0.051 C 
BRANCH  45  46
HETATM   46  C   UNK     0     -20.306 -17.512 -13.172  0.00  0.00     0.114 C 
BRANCH  46  47
HETATM   47  C   UNK     0     -20.903 -18.106 -11.941  0.00  0.00     0.139 C 
HETATM   48  O   UNK     0     -22.011 -17.700 -11.565  0.00  0.00    -0.650 OA
BRANCH  47  49
HETATM   49  O   UNK     0     -20.240 -19.081 -11.240  0.00  0.00    -0.776 OA
HETATM   50  H   UNK     0     -20.190 -20.052 -11.571  0.00  0.00     0.167 HD
ENDBRANCH  47  49
ENDBRANCH  46  47
ENDBRANCH  45  46
ENDBRANCH  11  45
BRANCH  18  51
HETATM   51  C   UNK     0     -16.938 -13.846  -9.525  0.00  0.00     0.051 C 
BRANCH  51  52
HETATM   52  C   UNK     0     -17.520 -13.367  -8.203  0.00  0.00     0.114 C 
BRANCH  52  53
HETATM   53  C   UNK     0     -16.906 -12.101  -7.759  0.00  0.00     0.139 C 
HETATM   54  O   UNK     0     -15.671 -11.970  -7.776  0.00  0.00    -0.650 OA
BRANCH  53  55
HETATM   55  O   UNK     0     -17.706 -11.073  -7.325  0.00  0.00    -0.776 OA
HETATM   56  H   UNK     0     -18.611 -10.852  -7.669  0.00  0.00     0.167 HD
ENDBRANCH  53  55
ENDBRANCH  52  53
ENDBRANCH  51  52
ENDBRANCH  18  51
TORSDOF 16
ENDMDL
MODEL 17
REMARK VINA RESULT:      -8.2     25.632     28.780
REMARK  16 active torsions:
REMARK  status: ('A' for Active; 'I' for Inactive)
REMARK    1  A    between atoms: C_6  and  C_7 
REMARK    2  A    between atoms: C_7  and  C_8 
REMARK    3  A    between atoms: C_8  and  C_9 
REMARK    4  A    between atoms: C_9  and  O_11 
REMARK    5  A    between atoms: C_16  and  C_17 
REMARK    6  A    between atoms: C_17  and  C_18 
REMARK    7  A    between atoms: C_18  and  C_19 
REMARK    8  A    between atoms: C_19  and  O_21 
REMARK    9  A    between atoms: C_28  and  C_29 
REMARK   10  A    between atoms: C_29  and  C_30 
REMARK   11  A    between atoms: C_30  and  C_31 
REMARK   12  A    between atoms: C_31  and  O_33 
REMARK   13  A    between atoms: C_42  and  C_43 
REMARK   14  A    between atoms: C_43  and  C_44 
REMARK   15  A    between atoms: C_44  and  C_45 
REMARK   16  A    between atoms: C_45  and  O_47 
ROOT
HETATM    1  C   UNK     0       2.969 -27.927  -7.909  0.00  0.00     0.051 C 
HETATM    2  C   UNK     0       3.134 -27.013  -9.107  0.00  0.00    -0.031 A 
HETATM    3  C   UNK     0       3.705 -25.752  -9.179  0.00  0.00     0.021 A 
HETATM    4  N   UNK     0       3.606 -25.295 -10.450  0.00  0.00    -0.361 N 
HETATM    5  C   UNK     0       2.994 -26.241 -11.191  0.00  0.00     0.022 A 
HETATM    6  C   UNK     0       2.682 -27.329 -10.381  0.00  0.00    -0.027 A 
HETATM    7  C   UNK     0       2.728 -26.273 -12.664  0.00  0.00     0.115 C 
HETATM    8  C   UNK     0       3.850 -25.798 -13.569  0.00  0.00     0.021 A 
HETATM    9  N   UNK     0       5.174 -25.953 -13.411  0.00  0.00    -0.361 N 
HETATM   10  C   UNK     0       5.796 -25.291 -14.410  0.00  0.00     0.022 A 
HETATM   11  C   UNK     0       4.846 -24.702 -15.240  0.00  0.00    -0.027 A 
HETATM   12  C   UNK     0       3.618 -25.018 -14.716  0.00  0.00    -0.031 A 
HETATM   13  C   UNK     0       2.286 -24.594 -15.293  0.00  0.00     0.051 C 
HETATM   14  C   UNK     0       7.304 -25.143 -14.592  0.00  0.00     0.115 C 
HETATM   15  C   UNK     0       7.996 -24.433 -13.440  0.00  0.00     0.021 A 
HETATM   16  N   UNK     0       8.009 -24.792 -12.142  0.00  0.00    -0.361 N 
HETATM   17  C   UNK     0       8.668 -23.869 -11.438  0.00  0.00     0.022 A 
HETATM   18  C   UNK     0       9.114 -22.865 -12.320  0.00  0.00    -0.027 A 
HETATM   19  C   UNK     0       8.687 -23.230 -13.571  0.00  0.00    -0.031 A 
HETATM   20  C   UNK     0       8.987 -22.437 -14.830  0.00  0.00     0.051 C 
HETATM   21  C   UNK     0       8.901 -23.767  -9.948  0.00  0.00     0.115 C 
HETATM   22  C   UNK     0       7.810 -24.276  -9.035  0.00  0.00     0.022 A 
HETATM   23  N   UNK     0       6.485 -24.140  -9.170  0.00  0.00    -0.361 N 
HETATM   24  C   UNK     0       5.884 -24.872  -8.209  0.00  0.00     0.021 A 
HETATM   25  C   UNK     0       6.847 -25.485  -7.431  0.00  0.00    -0.031 A 
HETATM   26  C   UNK     0       6.668 -26.369  -6.214  0.00  0.00     0.051 C 
HETATM   27  C   UNK     0       8.088 -25.118  -7.939  0.00  0.00    -0.027 A 
HETATM   28  C   UNK     0       4.396 -25.105  -8.012  0.00  0.00     0.115 C 
HETATM   29  H   UNK     0       3.935 -24.291 -10.806  0.00  0.00     0.165 HD
HETATM   30  H   UNK     0       5.672 -26.570 -12.624  0.00  0.00     0.165 HD
HETATM   31  H   UNK     0       7.586 -25.741 -11.721  0.00  0.00     0.165 HD
HETATM   32  H   UNK     0       5.960 -23.492  -9.919  0.00  0.00     0.165 HD
ENDROOT
BRANCH   6  33
HETATM   33  C   UNK     0       1.994 -28.626 -10.722  0.00  0.00     0.051 C 
BRANCH  33  34
HETATM   34  C   UNK     0       0.494 -28.456 -10.709  0.00  0.00     0.114 C 
BRANCH  34  35
HETATM   35  C   UNK     0      -0.014 -29.069  -9.448  0.00  0.00     0.139 C 
HETATM   36  O   UNK     0       0.141 -30.307  -9.235  0.00  0.00    -0.650 OA
BRANCH  35  37
HETATM   37  O   UNK     0      -0.664 -28.333  -8.466  0.00  0.00    -0.776 OA
HETATM   38  H   UNK     0      -0.300 -27.458  -8.124  0.00  0.00     0.167 HD
ENDBRANCH  35  37
ENDBRANCH  34  35
ENDBRANCH  33  34
ENDBRANCH   6  33
BRANCH  27  39
HETATM   39  C   UNK     0       9.374 -25.530  -7.314  0.00  0.00     0.051 C 
BRANCH  39  40
HETATM   40  C   UNK     0       9.760 -26.939  -7.383  0.00  0.00     0.114 C 
BRANCH  40  41
HETATM   41  C   UNK     0       9.666 -27.705  -8.606  0.00  0.00     0.139 C 
HETATM   42  O   UNK     0       9.259 -28.873  -8.651  0.00  0.00    -0.650 OA
BRANCH  41  43
HETATM   43  O   UNK     0      10.058 -27.098  -9.833  0.00  0.00    -0.776 OA
HETATM   44  H   UNK     0       9.413 -27.249 -10.600  0.00  0.00     0.167 HD
ENDBRANCH  41  43
ENDBRANCH  40  41
ENDBRANCH  39  40
ENDBRANCH  27  39
BRANCH  11  45
HETATM   45  C   UNK     0       5.061 -23.876 -16.479  0.00  0.00     0.051 C 
BRANCH  45  46
HETATM   46  C   UNK     0       5.419 -24.670 -17.683  0.00  0.00     0.114 C 
BRANCH  46  47
HETATM   47  C   UNK     0       6.808 -24.287 -18.067  0.00  0.00     0.139 C 
HETATM   48  O   UNK     0       7.237 -23.180 -17.712  0.00  0.00    -0.650 OA
BRANCH  47  49
HETATM   49  O   UNK     0       7.594 -25.139 -18.800  0.00  0.00    -0.776 OA
HETATM   50  H   UNK     0       8.035 -24.852 -19.681  0.00  0.00     0.167 HD
ENDBRANCH  47  49
ENDBRANCH  46  47
ENDBRANCH  45  46
ENDBRANCH  11  45
BRANCH  18  51
HETATM   51  C   UNK     0       9.920 -21.635 -11.992  0.00  0.00     0.051 C 
BRANCH  51  52
HETATM   52  C   UNK     0      11.347 -22.110 -11.761  0.00  0.00     0.114 C 
BRANCH  52  53
HETATM   53  C   UNK     0      12.248 -21.698 -12.854  0.00  0.00     0.139 C 
HETATM   54  O   UNK     0      12.471 -22.470 -13.800  0.00  0.00    -0.650 OA
BRANCH  53  55
HETATM   55  O   UNK     0      12.838 -20.458 -12.817  0.00  0.00    -0.776 OA
HETATM   56  H   UNK     0      13.753 -20.237 -13.135  0.00  0.00     0.167 HD
ENDBRANCH  53  55
ENDBRANCH  52  53
ENDBRANCH  51  52
ENDBRANCH  18  51
TORSDOF 16
ENDMDL
MODEL 18
REMARK VINA RESULT:      -8.1      4.086      7.689
REMARK  16 active torsions:
REMARK  status: ('A' for Active; 'I' for Inactive)
REMARK    1  A    between atoms: C_6  and  C_7 
REMARK    2  A    between atoms: C_7  and  C_8 
REMARK    3  A    between atoms: C_8  and  C_9 
REMARK    4  A    between atoms: C_9  and  O_11 
REMARK    5  A    between atoms: C_16  and  C_17 
REMARK    6  A    between atoms: C_17  and  C_18 
REMARK    7  A    between atoms: C_18  and  C_19 
REMARK    8  A    between atoms: C_19  and  O_21 
REMARK    9  A    between atoms: C_28  and  C_29 
REMARK   10  A    between atoms: C_29  and  C_30 
REMARK   11  A    between atoms: C_30  and  C_31 
REMARK   12  A    between atoms: C_31  and  O_33 
REMARK   13  A    between atoms: C_42  and  C_43 
REMARK   14  A    between atoms: C_43  and  C_44 
REMARK   15  A    between atoms: C_44  and  C_45 
REMARK   16  A    between atoms: C_45  and  O_47 
ROOT
HETATM    1  C   UNK     0     -17.594 -13.717 -20.958  0.00  0.00     0.051 C 
HETATM    2  C   UNK     0     -18.134 -13.619 -19.546  0.00  0.00    -0.031 A 
HETATM    3  C   UNK     0     -17.693 -12.842 -18.487  0.00  0.00     0.021 A 
HETATM    4  N   UNK     0     -18.458 -13.101 -17.400  0.00  0.00    -0.361 N 
HETATM    5  C   UNK     0     -19.383 -14.020 -17.746  0.00  0.00     0.022 A 
HETATM    6  C   UNK     0     -19.207 -14.368 -19.081  0.00  0.00    -0.027 A 
HETATM    7  C   UNK     0     -20.520 -14.575 -16.946  0.00  0.00     0.115 C 
HETATM    8  C   UNK     0     -21.313 -13.585 -16.111  0.00  0.00     0.021 A 
HETATM    9  N   UNK     0     -21.625 -12.312 -16.397  0.00  0.00    -0.361 N 
HETATM   10  C   UNK     0     -22.260 -11.786 -15.328  0.00  0.00     0.022 A 
HETATM   11  C   UNK     0     -22.367 -12.750 -14.330  0.00  0.00    -0.027 A 
HETATM   12  C   UNK     0     -21.773 -13.886 -14.816  0.00  0.00    -0.031 A 
HETATM   13  C   UNK     0     -21.657 -15.199 -14.075  0.00  0.00     0.051 C 
HETATM   14  C   UNK     0     -22.741 -10.345 -15.184  0.00  0.00     0.115 C 
HETATM   15  C   UNK     0     -21.627  -9.313 -15.266  0.00  0.00     0.021 A 
HETATM   16  N   UNK     0     -20.767  -9.111 -16.281  0.00  0.00    -0.361 N 
HETATM   17  C   UNK     0     -19.897  -8.160 -15.936  0.00  0.00     0.022 A 
HETATM   18  C   UNK     0     -20.211  -7.713 -14.637  0.00  0.00    -0.027 A 
HETATM   19  C   UNK     0     -21.297  -8.442 -14.229  0.00  0.00    -0.031 A 
HETATM   20  C   UNK     0     -21.987  -8.252 -12.891  0.00  0.00     0.051 C 
HETATM   21  C   UNK     0     -18.700  -7.619 -16.686  0.00  0.00     0.115 C 
HETATM   22  C   UNK     0     -17.927  -8.584 -17.555  0.00  0.00     0.022 A 
HETATM   23  N   UNK     0     -17.605  -9.858 -17.298  0.00  0.00    -0.361 N 
HETATM   24  C   UNK     0     -17.044 -10.385 -18.405  0.00  0.00     0.021 A 
HETATM   25  C   UNK     0     -16.994  -9.423 -19.396  0.00  0.00    -0.031 A 
HETATM   26  C   UNK     0     -16.419  -9.524 -20.793  0.00  0.00     0.051 C 
HETATM   27  C   UNK     0     -17.553  -8.262 -18.876  0.00  0.00    -0.027 A 
HETATM   28  C   UNK     0     -16.600 -11.820 -18.629  0.00  0.00     0.115 C 
HETATM   29  H   UNK     0     -18.314 -12.663 -16.386  0.00  0.00     0.165 HD
HETATM   30  H   UNK     0     -21.443 -11.796 -17.371  0.00  0.00     0.165 HD
HETATM   31  H   UNK     0     -20.803  -9.617 -17.281  0.00  0.00     0.165 HD
HETATM   32  H   UNK     0     -17.732 -10.386 -16.317  0.00  0.00     0.165 HD
ENDROOT
BRANCH   6  33
HETATM   33  C   UNK     0     -19.970 -15.348 -19.937  0.00  0.00     0.051 C 
BRANCH  33  34
HETATM   34  C   UNK     0     -19.537 -16.765 -19.644  0.00  0.00     0.114 C 
BRANCH  34  35
HETATM   35  C   UNK     0     -19.421 -17.476 -20.950  0.00  0.00     0.139 C 
HETATM   36  O   UNK     0     -18.656 -17.029 -21.853  0.00  0.00    -0.650 OA
BRANCH  35  37
HETATM   37  O   UNK     0     -20.128 -18.637 -21.235  0.00  0.00    -0.776 OA
HETATM   38  H   UNK     0     -20.721 -19.083 -20.555  0.00  0.00     0.167 HD
ENDBRANCH  35  37
ENDBRANCH  34  35
ENDBRANCH  33  34
ENDBRANCH   6  33
BRANCH  27  39
HETATM   39  C   UNK     0     -17.611  -6.981 -19.631  0.00  0.00     0.051 C 
BRANCH  39  40
HETATM   40  C   UNK     0     -16.627  -5.945 -19.318  0.00  0.00     0.114 C 
BRANCH  40  41
HETATM   41  C   UNK     0     -17.013  -4.618 -18.894  0.00  0.00     0.139 C 
HETATM   42  O   UNK     0     -17.650  -4.390 -17.857  0.00  0.00    -0.650 OA
BRANCH  41  43
HETATM   43  O   UNK     0     -16.649  -3.502 -19.700  0.00  0.00    -0.776 OA
HETATM   44  H   UNK     0     -17.410  -2.865 -19.902  0.00  0.00     0.167 HD
ENDBRANCH  41  43
ENDBRANCH  40  41
ENDBRANCH  39  40
ENDBRANCH  27  39
BRANCH  11  45
HETATM   45  C   UNK     0     -23.001 -12.630 -12.969  0.00  0.00     0.051 C 
BRANCH  45  46
HETATM   46  C   UNK     0     -24.280 -13.372 -12.829  0.00  0.00     0.114 C 
BRANCH  46  47
HETATM   47  C   UNK     0     -24.426 -13.731 -11.389  0.00  0.00     0.139 C 
HETATM   48  O   UNK     0     -23.530 -14.394 -10.850  0.00  0.00    -0.650 OA
BRANCH  47  49
HETATM   49  O   UNK     0     -25.530 -13.336 -10.676  0.00  0.00    -0.776 OA
HETATM   50  H   UNK     0     -26.475 -13.356 -11.078  0.00  0.00     0.167 HD
ENDBRANCH  47  49
ENDBRANCH  46  47
ENDBRANCH  45  46
ENDBRANCH  11  45
BRANCH  18  51
HETATM   51  C   UNK     0     -19.526  -6.636 -13.837  0.00  0.00     0.051 C 
BRANCH  51  52
HETATM   52  C   UNK     0     -18.455  -7.333 -13.012  0.00  0.00     0.114 C 
BRANCH  52  53
HETATM   53  C   UNK     0     -17.100  -6.866 -13.363  0.00  0.00     0.139 C 
HETATM   54  O   UNK     0     -16.953  -5.827 -14.027  0.00  0.00    -0.650 OA
BRANCH  53  55
HETATM   55  O   UNK     0     -16.005  -7.588 -12.955  0.00  0.00    -0.776 OA
HETATM   56  H   UNK     0     -15.833  -8.547 -13.145  0.00  0.00     0.167 HD
ENDBRANCH  53  55
ENDBRANCH  52  53
ENDBRANCH  51  52
ENDBRANCH  18  51
TORSDOF 16
ENDMDL
MODEL 19
REMARK VINA RESULT:      -8.0      2.811      8.180
REMARK  16 active torsions:
REMARK  status: ('A' for Active; 'I' for Inactive)
REMARK    1  A    between atoms: C_6  and  C_7 
REMARK    2  A    between atoms: C_7  and  C_8 
REMARK    3  A    between atoms: C_8  and  C_9 
REMARK    4  A    between atoms: C_9  and  O_11 
REMARK    5  A    between atoms: C_16  and  C_17 
REMARK    6  A    between atoms: C_17  and  C_18 
REMARK    7  A    between atoms: C_18  and  C_19 
REMARK    8  A    between atoms: C_19  and  O_21 
REMARK    9  A    between atoms: C_28  and  C_29 
REMARK   10  A    between atoms: C_29  and  C_30 
REMARK   11  A    between atoms: C_30  and  C_31 
REMARK   12  A    between atoms: C_31  and  O_33 
REMARK   13  A    between atoms: C_42  and  C_43 
REMARK   14  A    between atoms: C_43  and  C_44 
REMARK   15  A    between atoms: C_44  and  C_45 
REMARK   16  A    between atoms: C_45  and  O_47 
ROOT
HETATM    1  C   UNK     0     -17.443 -12.509  -6.211  0.00  0.00     0.051 C 
HETATM    2  C   UNK     0     -17.036 -11.738  -7.450  0.00  0.00    -0.031 A 
HETATM    3  C   UNK     0     -16.734 -12.208  -8.719  0.00  0.00     0.021 A 
HETATM    4  N   UNK     0     -16.392 -11.162  -9.507  0.00  0.00    -0.361 N 
HETATM    5  C   UNK     0     -16.477 -10.034  -8.771  0.00  0.00     0.022 A 
HETATM    6  C   UNK     0     -16.875 -10.359  -7.479  0.00  0.00    -0.027 A 
HETATM    7  C   UNK     0     -16.295  -8.609  -9.189  0.00  0.00     0.115 C 
HETATM    8  C   UNK     0     -16.915  -8.203 -10.515  0.00  0.00     0.021 A 
HETATM    9  N   UNK     0     -18.064  -8.625 -11.065  0.00  0.00    -0.361 N 
HETATM   10  C   UNK     0     -18.171  -8.070 -12.291  0.00  0.00     0.022 A 
HETATM   11  C   UNK     0     -17.066  -7.260 -12.533  0.00  0.00    -0.027 A 
HETATM   12  C   UNK     0     -16.270  -7.339 -11.419  0.00  0.00    -0.031 A 
HETATM   13  C   UNK     0     -14.956  -6.616 -11.229  0.00  0.00     0.051 C 
HETATM   14  C   UNK     0     -19.289  -8.320 -13.299  0.00  0.00     0.115 C 
HETATM   15  C   UNK     0     -19.406  -9.770 -13.741  0.00  0.00     0.021 A 
HETATM   16  N   UNK     0     -19.622 -10.850 -12.967  0.00  0.00    -0.361 N 
HETATM   17  C   UNK     0     -19.587 -11.947 -13.726  0.00  0.00     0.022 A 
HETATM   18  C   UNK     0     -19.347 -11.563 -15.061  0.00  0.00    -0.027 A 
HETATM   19  C   UNK     0     -19.236 -10.197 -15.057  0.00  0.00    -0.031 A 
HETATM   20  C   UNK     0     -19.010  -9.365 -16.306  0.00  0.00     0.051 C 
HETATM   21  C   UNK     0     -19.699 -13.403 -13.335  0.00  0.00     0.115 C 
HETATM   22  C   UNK     0     -19.126 -13.813 -11.999  0.00  0.00     0.022 A 
HETATM   23  N   UNK     0     -17.986 -13.406 -11.425  0.00  0.00    -0.361 N 
HETATM   24  C   UNK     0     -17.939 -13.909 -10.175  0.00  0.00     0.021 A 
HETATM   25  C   UNK     0     -19.070 -14.668  -9.942  0.00  0.00    -0.031 A 
HETATM   26  C   UNK     0     -19.448 -15.462  -8.709  0.00  0.00     0.051 C 
HETATM   27  C   UNK     0     -19.845 -14.621 -11.095  0.00  0.00    -0.027 A 
HETATM   28  C   UNK     0     -16.888 -13.651  -9.108  0.00  0.00     0.115 C 
HETATM   29  H   UNK     0     -16.053 -11.231 -10.567  0.00  0.00     0.165 HD
HETATM   30  H   UNK     0     -18.826  -9.276 -10.570  0.00  0.00     0.165 HD
HETATM   31  H   UNK     0     -19.851 -10.835 -11.870  0.00  0.00     0.165 HD
HETATM   32  H   UNK     0     -17.184 -12.794 -11.912  0.00  0.00     0.165 HD
ENDROOT
BRANCH   6  33
HETATM   33  C   UNK     0     -17.108  -9.470  -6.283  0.00  0.00     0.051 C 
BRANCH  33  34
HETATM   34  C   UNK     0     -15.797  -9.075  -5.646  0.00  0.00     0.114 C 
BRANCH  34  35
HETATM   35  C   UNK     0     -15.717  -7.586  -5.675  0.00  0.00     0.139 C 
HETATM   36  O   UNK     0     -14.618  -7.003  -5.446  0.00  0.00    -0.650 OA
BRANCH  35  37
HETATM   37  O   UNK     0     -16.816  -6.782  -5.951  0.00  0.00    -0.776 OA
HETATM   38  H   UNK     0     -16.782  -6.049  -6.642  0.00  0.00     0.167 HD
ENDBRANCH  35  37
ENDBRANCH  34  35
ENDBRANCH  33  34
ENDBRANCH   6  33
BRANCH  27  39
HETATM   39  C   UNK     0     -21.115 -15.382 -11.249  0.00  0.00     0.051 C 
BRANCH  39  40
HETATM   40  C   UNK     0     -21.044 -16.840 -11.343  0.00  0.00     0.114 C 
BRANCH  40  41
HETATM   41  C   UNK     0     -21.656 -17.706 -10.361  0.00  0.00     0.139 C 
HETATM   42  O   UNK     0     -21.640 -18.942 -10.435  0.00  0.00    -0.650 OA
BRANCH  41  43
HETATM   43  O   UNK     0     -22.316 -17.124  -9.241  0.00  0.00    -0.776 OA
HETATM   44  H   UNK     0     -22.129 -16.136  -9.112  0.00  0.00     0.167 HD
ENDBRANCH  41  43
ENDBRANCH  40  41
ENDBRANCH  39  40
ENDBRANCH  27  39
BRANCH  11  45
HETATM   45  C   UNK     0     -16.751  -6.436 -13.752  0.00  0.00     0.051 C 
BRANCH  45  46
HETATM   46  C   UNK     0     -15.988  -7.165 -14.797  0.00  0.00     0.114 C 
BRANCH  46  47
HETATM   47  C   UNK     0     -14.984  -6.215 -15.356  0.00  0.00     0.139 C 
HETATM   48  O   UNK     0     -14.165  -5.697 -14.583  0.00  0.00    -0.650 OA
BRANCH  47  49
HETATM   49  O   UNK     0     -14.967  -5.918 -16.695  0.00  0.00    -0.776 OA
HETATM   50  H   UNK     0     -14.213  -6.237 -17.314  0.00  0.00     0.167 HD
ENDBRANCH  47  49
ENDBRANCH  46  47
ENDBRANCH  45  46
ENDBRANCH  11  45
BRANCH  18  51
HETATM   51  C   UNK     0     -19.249 -12.448 -16.276  0.00  0.00     0.051 C 
BRANCH  51  52
HETATM   52  C   UNK     0     -20.679 -12.735 -16.711  0.00  0.00     0.114 C 
BRANCH  52  53
HETATM   53  C   UNK     0     -20.921 -14.180 -16.887  0.00  0.00     0.139 C 
HETATM   54  O   UNK     0     -21.869 -14.727 -16.303  0.00  0.00    -0.650 OA
BRANCH  53  55
HETATM   55  O   UNK     0     -20.089 -14.914 -17.697  0.00  0.00    -0.776 OA
HETATM   56  H   UNK     0     -20.231 -15.104 -18.661  0.00  0.00     0.167 HD
ENDBRANCH  53  55
ENDBRANCH  52  53
ENDBRANCH  51  52
ENDBRANCH  18  51
TORSDOF 16
ENDMDL
MODEL 20
REMARK VINA RESULT:      -8.0      3.684      8.747
REMARK  16 active torsions:
REMARK  status: ('A' for Active; 'I' for Inactive)
REMARK    1  A    between atoms: C_6  and  C_7 
REMARK    2  A    between atoms: C_7  and  C_8 
REMARK    3  A    between atoms: C_8  and  C_9 
REMARK    4  A    between atoms: C_9  and  O_11 
REMARK    5  A    between atoms: C_16  and  C_17 
REMARK    6  A    between atoms: C_17  and  C_18 
REMARK    7  A    between atoms: C_18  and  C_19 
REMARK    8  A    between atoms: C_19  and  O_21 
REMARK    9  A    between atoms: C_28  and  C_29 
REMARK   10  A    between atoms: C_29  and  C_30 
REMARK   11  A    between atoms: C_30  and  C_31 
REMARK   12  A    between atoms: C_31  and  O_33 
REMARK   13  A    between atoms: C_42  and  C_43 
REMARK   14  A    between atoms: C_43  and  C_44 
REMARK   15  A    between atoms: C_44  and  C_45 
REMARK   16  A    between atoms: C_45  and  O_47 
ROOT
HETATM    1  C   UNK     0     -14.260  -3.302  -9.401  0.00  0.00     0.051 C 
HETATM    2  C   UNK     0     -14.464  -4.253 -10.563  0.00  0.00    -0.031 A 
HETATM    3  C   UNK     0     -14.082  -5.579 -10.692  0.00  0.00     0.021 A 
HETATM    4  N   UNK     0     -14.446  -6.025 -11.918  0.00  0.00    -0.361 N 
HETATM    5  C   UNK     0     -15.059  -5.015 -12.569  0.00  0.00     0.022 A 
HETATM    6  C   UNK     0     -15.085  -3.890 -11.752  0.00  0.00    -0.027 A 
HETATM    7  C   UNK     0     -15.727  -5.013 -13.909  0.00  0.00     0.115 C 
HETATM    8  C   UNK     0     -16.595  -6.214 -14.240  0.00  0.00     0.021 A 
HETATM    9  N   UNK     0     -17.376  -6.933 -13.419  0.00  0.00    -0.361 N 
HETATM   10  C   UNK     0     -17.889  -7.963 -14.124  0.00  0.00     0.022 A 
HETATM   11  C   UNK     0     -17.434  -7.901 -15.438  0.00  0.00    -0.027 A 
HETATM   12  C   UNK     0     -16.618  -6.801 -15.518  0.00  0.00    -0.031 A 
HETATM   13  C   UNK     0     -15.900  -6.334 -16.764  0.00  0.00     0.051 C 
HETATM   14  C   UNK     0     -18.782  -9.073 -13.577  0.00  0.00     0.115 C 
HETATM   15  C   UNK     0     -18.133  -9.903 -12.482  0.00  0.00     0.021 A 
HETATM   16  N   UNK     0     -17.647  -9.471 -11.303  0.00  0.00    -0.361 N 
HETATM   17  C   UNK     0     -17.095 -10.499 -10.653  0.00  0.00     0.022 A 
HETATM   18  C   UNK     0     -17.236 -11.657 -11.443  0.00  0.00    -0.027 A 
HETATM   19  C   UNK     0     -17.889 -11.271 -12.585  0.00  0.00    -0.031 A 
HETATM   20  C   UNK     0     -18.278 -12.226 -13.698  0.00  0.00     0.051 C 
HETATM   21  C   UNK     0     -16.355 -10.531  -9.335  0.00  0.00     0.115 C 
HETATM   22  C   UNK     0     -15.523  -9.323  -8.973  0.00  0.00     0.022 A 
HETATM   23  N   UNK     0     -14.739  -8.586  -9.771  0.00  0.00    -0.361 N 
HETATM   24  C   UNK     0     -14.301  -7.522  -9.067  0.00  0.00     0.021 A 
HETATM   25  C   UNK     0     -14.806  -7.582  -7.783  0.00  0.00    -0.031 A 
HETATM   26  C   UNK     0     -14.566  -6.642  -6.620  0.00  0.00     0.051 C 
HETATM   27  C   UNK     0     -15.591  -8.726  -7.698  0.00  0.00    -0.027 A 
HETATM   28  C   UNK     0     -13.462  -6.359  -9.568  0.00  0.00     0.115 C 
HETATM   29  H   UNK     0     -14.231  -7.039 -12.329  0.00  0.00     0.165 HD
HETATM   30  H   UNK     0     -17.606  -6.688 -12.353  0.00  0.00     0.165 HD
HETATM   31  H   UNK     0     -17.737  -8.430 -10.899  0.00  0.00     0.165 HD
HETATM   32  H   UNK     0     -14.453  -8.833 -10.826  0.00  0.00     0.165 HD
ENDROOT
BRANCH   6  33
HETATM   33  C   UNK     0     -15.646  -2.515 -12.011  0.00  0.00     0.051 C 
BRANCH  33  34
HETATM   34  C   UNK     0     -15.070  -1.933 -13.280  0.00  0.00     0.114 C 
BRANCH  34  35
HETATM   35  C   UNK     0     -16.201  -1.351 -14.058  0.00  0.00     0.139 C 
HETATM   36  O   UNK     0     -16.702  -1.988 -15.030  0.00  0.00    -0.650 OA
BRANCH  35  37
HETATM   37  O   UNK     0     -16.753  -0.110 -13.762  0.00  0.00    -0.776 OA
HETATM   38  H   UNK     0     -16.247   0.590 -13.244  0.00  0.00     0.167 HD
ENDBRANCH  35  37
ENDBRANCH  34  35
ENDBRANCH  33  34
ENDBRANCH   6  33
BRANCH  27  39
HETATM   39  C   UNK     0     -16.248  -9.166  -6.438  0.00  0.00     0.051 C 
BRANCH  39  40
HETATM   40  C   UNK     0     -17.410  -8.416  -5.962  0.00  0.00     0.114 C 
BRANCH  40  41
HETATM   41  C   UNK     0     -18.763  -8.779  -6.322  0.00  0.00     0.139 C 
HETATM   42  O   UNK     0     -19.135  -9.949  -6.487  0.00  0.00    -0.650 OA
BRANCH  41  43
HETATM   43  O   UNK     0     -19.730  -7.750  -6.501  0.00  0.00    -0.776 OA
HETATM   44  H   UNK     0     -19.339  -6.826  -6.636  0.00  0.00     0.167 HD
ENDBRANCH  41  43
ENDBRANCH  40  41
ENDBRANCH  39  40
ENDBRANCH  27  39
BRANCH  11  45
HETATM   45  C   UNK     0     -17.742  -8.823 -16.586  0.00  0.00     0.051 C 
BRANCH  45  46
HETATM   46  C   UNK     0     -16.948 -10.078 -16.586  0.00  0.00     0.114 C 
BRANCH  46  47
HETATM   47  C   UNK     0     -16.435 -10.277 -17.972  0.00  0.00     0.139 C 
HETATM   48  O   UNK     0     -16.571  -9.357 -18.791  0.00  0.00    -0.650 OA
BRANCH  47  49
HETATM   49  O   UNK     0     -15.828 -11.452 -18.335  0.00  0.00    -0.776 OA
HETATM   50  H   UNK     0     -16.323 -12.352 -18.309  0.00  0.00     0.167 HD
ENDBRANCH  47  49
ENDBRANCH  46  47
ENDBRANCH  45  46
ENDBRANCH  11  45
BRANCH  18  51
HETATM   51  C   UNK     0     -16.792 -13.060 -11.117  0.00  0.00     0.051 C 
BRANCH  51  52
HETATM   52  C   UNK     0     -17.927 -13.693 -10.326  0.00  0.00     0.114 C 
BRANCH  52  53
HETATM   53  C   UNK     0     -17.474 -14.182  -9.009  0.00  0.00     0.139 C 
HETATM   54  O   UNK     0     -16.315 -14.605  -8.869  0.00  0.00    -0.650 OA
BRANCH  53  55
HETATM   55  O   UNK     0     -18.341 -14.169  -7.944  0.00  0.00    -0.776 OA
HETATM   56  H   UNK     0     -18.115 -14.396  -7.004  0.00  0.00     0.167 HD
ENDBRANCH  53  55
ENDBRANCH  52  53
ENDBRANCH  51  52
ENDBRANCH  18  51
TORSDOF 16
ENDMDL
