MODEL 1
REMARK VINA RESULT:      -8.2      0.000      0.000
REMARK  28 active torsions:
REMARK  status: ('A' for Active; 'I' for Inactive)
REMARK    1  A    between atoms: C_2  and  O_3 
REMARK    2  A    between atoms: C_2  and  C_4 
REMARK    3  A    between atoms: C_4  and  C_5 
REMARK    4  A    between atoms: C_5  and  C_6 
REMARK    5  A    between atoms: C_7  and  C_8 
REMARK    6  A    between atoms: C_8  and  C_9 
REMARK    7  A    between atoms: C_9  and  O_11 
REMARK    8  A    between atoms: C_28  and  C_29 
REMARK    9  A    between atoms: C_29  and  C_30 
REMARK   10  A    between atoms: C_30  and  O_32 
REMARK   11  A    between atoms: C_33  and  C_34 
REMARK   12  A    between atoms: C_34  and  C_35 
REMARK   13  A    between atoms: C_35  and  C_36 
REMARK   14  A    between atoms: C_36  and  O_38 
REMARK   15  A    between atoms: C_39  and  C_40 
REMARK   16  A    between atoms: C_40  and  C_41 
REMARK   17  A    between atoms: C_41  and  C_42 
REMARK   18  A    between atoms: C_42  and  O_44 
REMARK   19  A    between atoms: C_45  and  C_46 
REMARK   20  A    between atoms: C_46  and  C_47 
REMARK   21  A    between atoms: C_47  and  O_49 
REMARK   22  A    between atoms: C_50  and  C_51 
REMARK   23  A    between atoms: C_51  and  C_52 
REMARK   24  A    between atoms: C_52  and  O_54 
REMARK   25  A    between atoms: C_55  and  C_56 
REMARK   26  A    between atoms: C_56  and  C_57 
REMARK   27  A    between atoms: C_57  and  C_58 
REMARK   28  A    between atoms: C_58  and  O_60 
ROOT
ATOM      1  O   UNK d   0       2.110  12.189 -32.253  0.00  0.00    -0.650 OA
ATOM      2  C   UNK d   0       2.434  11.020 -31.949  0.00  0.00     0.139 C 
ENDROOT
BRANCH   2   3
ATOM      3  O   UNK d   0       3.482  10.815 -31.085  0.00  0.00    -0.776 OA
ATOM      4  H   UNK d   0       3.888   9.885 -30.959  0.00  0.00     0.167 HD
ENDBRANCH   2   3
BRANCH   2   5
ATOM      5  C   UNK d   0       1.687   9.864 -32.521  0.00  0.00     0.115 C 
BRANCH   5   6
ATOM      6  C   UNK d   0       2.073   9.660 -33.962  0.00  0.00     0.052 C 
BRANCH   6   7
ATOM      7  C   UNK d   0       1.142   8.717 -34.685  0.00  0.00    -0.020 A 
ATOM      8  C   UNK d   0       1.405   7.508 -35.113  0.00  0.00    -0.011 A 
ATOM      9  C   UNK d   0       0.206   6.994 -35.754  0.00  0.00     0.067 A 
ATOM     10  C   UNK d   0      -0.172   5.795 -36.379  0.00  0.00     0.062 C 
ATOM     11  N   UNK d   0      -0.735   7.957 -35.677  0.00  0.00    -0.248 NA
ATOM     12  C   UNK d   0      -1.470   5.377 -36.694  0.00  0.00     0.041 A 
ATOM     13  N   UNK d   0      -2.513   6.046 -37.222  0.00  0.00    -0.355 N 
ATOM     14  C   UNK d   0      -1.852   4.058 -36.392  0.00  0.00    -0.022 A 
ATOM     15  C   UNK d   0      -3.550   5.187 -37.254  0.00  0.00     0.042 A 
ATOM     16  H   UNK d   0      -2.511   7.098 -37.582  0.00  0.00     0.166 HD
ATOM     17  C   UNK d   0      -4.871   5.368 -37.708  0.00  0.00     0.062 C 
ATOM     18  C   UNK d   0      -3.174   3.931 -36.741  0.00  0.00    -0.013 A 
ATOM     19  C   UNK d   0      -5.725   6.418 -37.484  0.00  0.00     0.067 A 
ATOM     20  N   UNK d   0      -5.201   7.515 -36.932  0.00  0.00    -0.248 NA
ATOM     21  C   UNK d   0      -7.141   6.674 -37.684  0.00  0.00    -0.011 A 
ATOM     22  C   UNK d   0      -6.173   8.470 -36.755  0.00  0.00     0.066 A 
ATOM     23  C   UNK d   0      -5.757   9.681 -36.222  0.00  0.00     0.062 C 
ATOM     24  C   UNK d   0      -7.398   7.874 -37.251  0.00  0.00    -0.020 A 
ATOM     25  C   UNK d   0      -4.447  10.085 -35.924  0.00  0.00     0.041 A 
ATOM     26  N   UNK d   0      -3.414   9.425 -35.386  0.00  0.00    -0.355 N 
ATOM     27  C   UNK d   0      -4.062  11.409 -36.232  0.00  0.00    -0.022 A 
ATOM     28  C   UNK d   0      -2.382  10.282 -35.345  0.00  0.00     0.042 A 
ATOM     29  H   UNK d   0      -3.421   8.371 -35.015  0.00  0.00     0.166 HD
ATOM     30  C   UNK d   0      -1.065  10.119 -34.887  0.00  0.00     0.062 C 
ATOM     31  C   UNK d   0      -2.757  11.541 -35.870  0.00  0.00    -0.013 A 
ATOM     32  C   UNK d   0      -0.235   9.020 -35.044  0.00  0.00     0.066 A 
BRANCH   8  33
ATOM     33  C   UNK d   0       2.681   6.782 -34.983  0.00  0.00     0.151 C 
BRANCH  33  34
ATOM     34  C   UNK d   0       3.707   7.257 -35.929  0.00  0.00     0.143 C 
ATOM     35  O   UNK d   0       4.912   7.177 -35.654  0.00  0.00    -0.650 OA
BRANCH  34  36
ATOM     36  O   UNK d   0       3.317   7.798 -37.133  0.00  0.00    -0.776 OA
ATOM     37  H   UNK d   0       3.695   8.697 -37.462  0.00  0.00     0.167 HD
ENDBRANCH  34  36
ENDBRANCH  33  34
ENDBRANCH   8  33
BRANCH  31  38
ATOM     38  C   UNK d   0      -1.911  12.784 -36.023  0.00  0.00     0.151 C 
BRANCH  38  39
ATOM     39  C   UNK d   0      -1.445  12.981 -37.379  0.00  0.00     0.143 C 
ATOM     40  O   UNK d   0      -0.848  14.013 -37.734  0.00  0.00    -0.650 OA
BRANCH  39  41
ATOM     41  O   UNK d   0      -1.665  11.987 -38.333  0.00  0.00    -0.776 OA
ATOM     42  H   UNK d   0      -0.835  11.537 -38.730  0.00  0.00     0.167 HD
ENDBRANCH  39  41
ENDBRANCH  38  39
ENDBRANCH  31  38
BRANCH  27  43
ATOM     43  C   UNK d   0      -4.873  12.525 -36.842  0.00  0.00     0.052 C 
BRANCH  43  44
ATOM     44  C   UNK d   0      -5.719  13.252 -35.848  0.00  0.00     0.115 C 
BRANCH  44  45
ATOM     45  C   UNK d   0      -7.111  13.214 -36.368  0.00  0.00     0.139 C 
ATOM     46  O   UNK d   0      -8.054  13.303 -35.543  0.00  0.00    -0.650 OA
BRANCH  45  47
ATOM     47  O   UNK d   0      -7.405  13.091 -37.709  0.00  0.00    -0.776 OA
ATOM     48  H   UNK d   0      -7.240  13.849 -38.390  0.00  0.00     0.167 HD
ENDBRANCH  45  47
ENDBRANCH  44  45
ENDBRANCH  43  44
ENDBRANCH  27  43
BRANCH  24  49
ATOM     49  C   UNK d   0      -8.704   8.554 -37.298  0.00  0.00     0.052 C 
BRANCH  49  50
ATOM     50  C   UNK d   0      -9.446   8.353 -36.002  0.00  0.00     0.115 C 
BRANCH  50  51
ATOM     51  C   UNK d   0      -9.153   9.280 -34.917  0.00  0.00     0.139 C 
ATOM     52  O   UNK d   0      -8.800   8.897 -33.777  0.00  0.00    -0.650 OA
BRANCH  51  53
ATOM     53  O   UNK d   0      -9.266  10.645 -35.132  0.00  0.00    -0.776 OA
ATOM     54  H   UNK d   0      -8.443  11.154 -35.402  0.00  0.00     0.167 HD
ENDBRANCH  51  53
ENDBRANCH  50  51
ENDBRANCH  49  50
ENDBRANCH  24  49
BRANCH  21  55
ATOM     55  C   UNK d   0      -8.090   5.693 -38.290  0.00  0.00     0.151 C 
BRANCH  55  56
ATOM     56  C   UNK d   0      -8.433   4.609 -37.357  0.00  0.00     0.143 C 
ATOM     57  O   UNK d   0      -9.236   4.759 -36.415  0.00  0.00    -0.650 OA
BRANCH  56  58
ATOM     58  O   UNK d   0      -7.827   3.369 -37.551  0.00  0.00    -0.776 OA
ATOM     59  H   UNK d   0      -8.398   2.554 -37.261  0.00  0.00     0.167 HD
ENDBRANCH  56  58
ENDBRANCH  55  56
ENDBRANCH  21  55
BRANCH  18  60
ATOM     60  C   UNK d   0      -3.994   2.675 -36.579  0.00  0.00     0.151 C 
BRANCH  60  61
ATOM     61  C   UNK d   0      -4.242   2.176 -37.940  0.00  0.00     0.143 C 
ATOM     62  O   UNK d   0      -5.332   1.902 -38.443  0.00  0.00    -0.650 OA
BRANCH  61  63
ATOM     63  O   UNK d   0      -3.085   2.001 -38.738  0.00  0.00    -0.776 OA
ATOM     64  H   UNK d   0      -3.157   1.840 -39.727  0.00  0.00     0.167 HD
ENDBRANCH  61  63
ENDBRANCH  60  61
ENDBRANCH  18  60
BRANCH  14  65
ATOM     65  C   UNK d   0      -1.046   2.892 -35.894  0.00  0.00     0.052 C 
BRANCH  65  66
ATOM     66  C   UNK d   0      -0.956   2.838 -34.410  0.00  0.00     0.115 C 
BRANCH  66  67
ATOM     67  C   UNK d   0       0.232   3.303 -33.752  0.00  0.00     0.139 C 
ATOM     68  O   UNK d   0       1.307   2.607 -33.862  0.00  0.00    -0.650 OA
BRANCH  67  69
ATOM     69  O   UNK d   0       0.384   4.453 -32.977  0.00  0.00    -0.776 OA
ATOM     70  H   UNK d   0       1.351   4.785 -32.854  0.00  0.00     0.167 HD
ENDBRANCH  67  69
ENDBRANCH  66  67
ENDBRANCH  65  66
ENDBRANCH  14  65
ENDBRANCH   6   7
ENDBRANCH   5   6
ENDBRANCH   2   5
TORSDOF 28
ENDMDL
MODEL 2
REMARK VINA RESULT:      -8.1      1.442      1.689
REMARK  28 active torsions:
REMARK  status: ('A' for Active; 'I' for Inactive)
REMARK    1  A    between atoms: C_2  and  O_3 
REMARK    2  A    between atoms: C_2  and  C_4 
REMARK    3  A    between atoms: C_4  and  C_5 
REMARK    4  A    between atoms: C_5  and  C_6 
REMARK    5  A    between atoms: C_7  and  C_8 
REMARK    6  A    between atoms: C_8  and  C_9 
REMARK    7  A    between atoms: C_9  and  O_11 
REMARK    8  A    between atoms: C_28  and  C_29 
REMARK    9  A    between atoms: C_29  and  C_30 
REMARK   10  A    between atoms: C_30  and  O_32 
REMARK   11  A    between atoms: C_33  and  C_34 
REMARK   12  A    between atoms: C_34  and  C_35 
REMARK   13  A    between atoms: C_35  and  C_36 
REMARK   14  A    between atoms: C_36  and  O_38 
REMARK   15  A    between atoms: C_39  and  C_40 
REMARK   16  A    between atoms: C_40  and  C_41 
REMARK   17  A    between atoms: C_41  and  C_42 
REMARK   18  A    between atoms: C_42  and  O_44 
REMARK   19  A    between atoms: C_45  and  C_46 
REMARK   20  A    between atoms: C_46  and  C_47 
REMARK   21  A    between atoms: C_47  and  O_49 
REMARK   22  A    between atoms: C_50  and  C_51 
REMARK   23  A    between atoms: C_51  and  C_52 
REMARK   24  A    between atoms: C_52  and  O_54 
REMARK   25  A    between atoms: C_55  and  C_56 
REMARK   26  A    between atoms: C_56  and  C_57 
REMARK   27  A    between atoms: C_57  and  C_58 
REMARK   28  A    between atoms: C_58  and  O_60 
ROOT
ATOM      1  O   UNK d   0       3.219   8.967 -31.346  0.00  0.00    -0.650 OA
ATOM      2  C   UNK d   0       2.870   8.934 -32.547  0.00  0.00     0.139 C 
ENDROOT
BRANCH   2   3
ATOM      3  O   UNK d   0       3.823   8.745 -33.520  0.00  0.00    -0.776 OA
ATOM      4  H   UNK d   0       4.347   9.534 -33.904  0.00  0.00     0.167 HD
ENDBRANCH   2   3
BRANCH   2   5
ATOM      5  C   UNK d   0       1.435   9.098 -32.915  0.00  0.00     0.115 C 
BRANCH   5   6
ATOM      6  C   UNK d   0       1.308   9.385 -34.387  0.00  0.00     0.052 C 
BRANCH   6   7
ATOM      7  C   UNK d   0       0.326   8.466 -35.074  0.00  0.00    -0.020 A 
ATOM      8  C   UNK d   0       0.534   7.243 -35.491  0.00  0.00    -0.011 A 
ATOM      9  C   UNK d   0      -0.697   6.764 -36.097  0.00  0.00     0.067 A 
ATOM     10  C   UNK d   0      -1.134   5.572 -36.695  0.00  0.00     0.062 C 
ATOM     11  N   UNK d   0      -1.601   7.763 -36.011  0.00  0.00    -0.248 NA
ATOM     12  C   UNK d   0      -2.453   5.198 -36.974  0.00  0.00     0.041 A 
ATOM     13  N   UNK d   0      -3.483   5.897 -37.486  0.00  0.00    -0.355 N 
ATOM     14  C   UNK d   0      -2.876   3.897 -36.644  0.00  0.00    -0.022 A 
ATOM     15  C   UNK d   0      -4.551   5.077 -37.482  0.00  0.00     0.042 A 
ATOM     16  H   UNK d   0      -3.452   6.944 -37.862  0.00  0.00     0.166 HD
ATOM     17  C   UNK d   0      -5.876   5.299 -37.908  0.00  0.00     0.062 C 
ATOM     18  C   UNK d   0      -4.209   3.814 -36.960  0.00  0.00    -0.013 A 
ATOM     19  C   UNK d   0      -6.685   6.383 -37.679  0.00  0.00     0.067 A 
ATOM     20  N   UNK d   0      -6.108   7.468 -37.155  0.00  0.00    -0.248 NA
ATOM     21  C   UNK d   0      -8.095   6.688 -37.849  0.00  0.00    -0.011 A 
ATOM     22  C   UNK d   0      -7.040   8.459 -36.969  0.00  0.00     0.066 A 
ATOM     23  C   UNK d   0      -6.568   9.662 -36.464  0.00  0.00     0.062 C 
ATOM     24  C   UNK d   0      -8.298   7.903 -37.428  0.00  0.00    -0.020 A 
ATOM     25  C   UNK d   0      -5.237  10.022 -36.202  0.00  0.00     0.041 A 
ATOM     26  N   UNK d   0      -4.217   9.331 -35.679  0.00  0.00    -0.355 N 
ATOM     27  C   UNK d   0      -4.812  11.326 -36.538  0.00  0.00    -0.022 A 
ATOM     28  C   UNK d   0      -3.153  10.150 -35.674  0.00  0.00     0.042 A 
ATOM     29  H   UNK d   0      -4.253   8.283 -35.293  0.00  0.00     0.166 HD
ATOM     30  C   UNK d   0      -1.833   9.945 -35.245  0.00  0.00     0.062 C 
ATOM     31  C   UNK d   0      -3.495  11.416 -36.208  0.00  0.00    -0.013 A 
ATOM     32  C   UNK d   0      -1.048   8.814 -35.406  0.00  0.00     0.066 A 
BRANCH   8  33
ATOM     33  C   UNK d   0       1.786   6.472 -35.381  0.00  0.00     0.151 C 
BRANCH  33  34
ATOM     34  C   UNK d   0       2.756   6.804 -36.440  0.00  0.00     0.143 C 
ATOM     35  O   UNK d   0       2.431   6.763 -37.636  0.00  0.00    -0.650 OA
BRANCH  34  36
ATOM     36  O   UNK d   0       4.038   7.163 -36.094  0.00  0.00    -0.776 OA
ATOM     37  H   UNK d   0       4.247   7.578 -35.175  0.00  0.00     0.167 HD
ENDBRANCH  34  36
ENDBRANCH  33  34
ENDBRANCH   8  33
BRANCH  31  38
ATOM     38  C   UNK d   0      -2.608  12.624 -36.400  0.00  0.00     0.151 C 
BRANCH  38  39
ATOM     39  C   UNK d   0      -1.895  12.603 -37.659  0.00  0.00     0.143 C 
ATOM     40  O   UNK d   0      -2.463  12.798 -38.749  0.00  0.00    -0.650 OA
BRANCH  39  41
ATOM     41  O   UNK d   0      -0.522  12.359 -37.667  0.00  0.00    -0.776 OA
ATOM     42  H   UNK d   0       0.028  12.797 -36.922  0.00  0.00     0.167 HD
ENDBRANCH  39  41
ENDBRANCH  38  39
ENDBRANCH  31  38
BRANCH  27  43
ATOM     43  C   UNK d   0      -5.596  12.463 -37.145  0.00  0.00     0.052 C 
BRANCH  43  44
ATOM     44  C   UNK d   0      -6.511  13.135 -36.174  0.00  0.00     0.115 C 
BRANCH  44  45
ATOM     45  C   UNK d   0      -7.779  13.404 -36.901  0.00  0.00     0.139 C 
ATOM     46  O   UNK d   0      -8.527  14.316 -36.469  0.00  0.00    -0.650 OA
BRANCH  45  47
ATOM     47  O   UNK d   0      -8.159  12.703 -38.025  0.00  0.00    -0.776 OA
ATOM     48  H   UNK d   0      -8.391  11.697 -38.006  0.00  0.00     0.167 HD
ENDBRANCH  45  47
ENDBRANCH  44  45
ENDBRANCH  43  44
ENDBRANCH  27  43
BRANCH  24  49
ATOM     49  C   UNK d   0      -9.579   8.629 -37.454  0.00  0.00     0.052 C 
BRANCH  49  50
ATOM     50  C   UNK d   0     -10.300   8.468 -36.140  0.00  0.00     0.115 C 
BRANCH  50  51
ATOM     51  C   UNK d   0     -10.021   9.453 -35.104  0.00  0.00     0.139 C 
ATOM     52  O   UNK d   0      -9.279   9.211 -34.123  0.00  0.00    -0.650 OA
BRANCH  51  53
ATOM     53  O   UNK d   0     -10.591  10.714 -35.185  0.00  0.00    -0.776 OA
ATOM     54  H   UNK d   0     -10.211  11.366 -35.849  0.00  0.00     0.167 HD
ENDBRANCH  51  53
ENDBRANCH  50  51
ENDBRANCH  49  50
ENDBRANCH  24  49
BRANCH  21  55
ATOM     55  C   UNK d   0      -9.093   5.735 -38.419  0.00  0.00     0.151 C 
BRANCH  55  56
ATOM     56  C   UNK d   0      -9.526   4.734 -37.432  0.00  0.00     0.143 C 
ATOM     57  O   UNK d   0     -10.399   4.968 -36.572  0.00  0.00    -0.650 OA
BRANCH  56  58
ATOM     58  O   UNK d   0      -8.926   3.477 -37.474  0.00  0.00    -0.776 OA
ATOM     59  H   UNK d   0      -8.150   3.341 -36.801  0.00  0.00     0.167 HD
ENDBRANCH  56  58
ENDBRANCH  55  56
ENDBRANCH  21  55
BRANCH  18  60
ATOM     60  C   UNK d   0      -5.070   2.592 -36.761  0.00  0.00     0.151 C 
BRANCH  60  61
ATOM     61  C   UNK d   0      -5.823   2.826 -35.519  0.00  0.00     0.143 C 
ATOM     62  O   UNK d   0      -6.833   3.517 -35.383  0.00  0.00    -0.650 OA
BRANCH  61  63
ATOM     63  O   UNK d   0      -5.310   2.176 -34.372  0.00  0.00    -0.776 OA
ATOM     64  H   UNK d   0      -5.891   1.580 -33.810  0.00  0.00     0.167 HD
ENDBRANCH  61  63
ENDBRANCH  60  61
ENDBRANCH  18  60
BRANCH  14  65
ATOM     65  C   UNK d   0      -2.100   2.710 -36.148  0.00  0.00     0.052 C 
BRANCH  65  66
ATOM     66  C   UNK d   0      -2.178   2.539 -34.673  0.00  0.00     0.115 C 
BRANCH  66  67
ATOM     67  C   UNK d   0      -2.171   3.694 -33.821  0.00  0.00     0.139 C 
ATOM     68  O   UNK d   0      -3.296   4.155 -33.402  0.00  0.00    -0.650 OA
BRANCH  67  69
ATOM     69  O   UNK d   0      -1.066   4.414 -33.368  0.00  0.00    -0.776 OA
ATOM     70  H   UNK d   0      -1.167   4.857 -32.444  0.00  0.00     0.167 HD
ENDBRANCH  67  69
ENDBRANCH  66  67
ENDBRANCH  65  66
ENDBRANCH  14  65
ENDBRANCH   6   7
ENDBRANCH   5   6
ENDBRANCH   2   5
TORSDOF 28
ENDMDL
MODEL 3
REMARK VINA RESULT:      -8.0      2.036      7.412
REMARK  28 active torsions:
REMARK  status: ('A' for Active; 'I' for Inactive)
REMARK    1  A    between atoms: C_2  and  O_3 
REMARK    2  A    between atoms: C_2  and  C_4 
REMARK    3  A    between atoms: C_4  and  C_5 
REMARK    4  A    between atoms: C_5  and  C_6 
REMARK    5  A    between atoms: C_7  and  C_8 
REMARK    6  A    between atoms: C_8  and  C_9 
REMARK    7  A    between atoms: C_9  and  O_11 
REMARK    8  A    between atoms: C_28  and  C_29 
REMARK    9  A    between atoms: C_29  and  C_30 
REMARK   10  A    between atoms: C_30  and  O_32 
REMARK   11  A    between atoms: C_33  and  C_34 
REMARK   12  A    between atoms: C_34  and  C_35 
REMARK   13  A    between atoms: C_35  and  C_36 
REMARK   14  A    between atoms: C_36  and  O_38 
REMARK   15  A    between atoms: C_39  and  C_40 
REMARK   16  A    between atoms: C_40  and  C_41 
REMARK   17  A    between atoms: C_41  and  C_42 
REMARK   18  A    between atoms: C_42  and  O_44 
REMARK   19  A    between atoms: C_45  and  C_46 
REMARK   20  A    between atoms: C_46  and  C_47 
REMARK   21  A    between atoms: C_47  and  O_49 
REMARK   22  A    between atoms: C_50  and  C_51 
REMARK   23  A    between atoms: C_51  and  C_52 
REMARK   24  A    between atoms: C_52  and  O_54 
REMARK   25  A    between atoms: C_55  and  C_56 
REMARK   26  A    between atoms: C_56  and  C_57 
REMARK   27  A    between atoms: C_57  and  C_58 
REMARK   28  A    between atoms: C_58  and  O_60 
ROOT
ATOM      1  O   UNK d   0       2.672   6.855 -37.598  0.00  0.00    -0.650 OA
ATOM      2  C   UNK d   0       1.774   6.096 -38.026  0.00  0.00     0.139 C 
ENDROOT
BRANCH   2   3
ATOM      3  O   UNK d   0       1.508   6.062 -39.373  0.00  0.00    -0.776 OA
ATOM      4  H   UNK d   0       1.170   5.208 -39.823  0.00  0.00     0.167 HD
ENDBRANCH   2   3
BRANCH   2   5
ATOM      5  C   UNK d   0       1.004   5.240 -37.080  0.00  0.00     0.115 C 
BRANCH   5   6
ATOM      6  C   UNK d   0       0.909   5.909 -35.736  0.00  0.00     0.052 C 
BRANCH   6   7
ATOM      7  C   UNK d   0      -0.243   6.880 -35.650  0.00  0.00    -0.020 A 
ATOM      8  C   UNK d   0      -0.194   8.153 -35.351  0.00  0.00    -0.011 A 
ATOM      9  C   UNK d   0      -1.552   8.671 -35.385  0.00  0.00     0.067 A 
ATOM     10  C   UNK d   0      -2.165   9.918 -35.188  0.00  0.00     0.062 C 
ATOM     11  N   UNK d   0      -2.365   7.643 -35.707  0.00  0.00    -0.248 NA
ATOM     12  C   UNK d   0      -3.469  10.286 -35.538  0.00  0.00     0.041 A 
ATOM     13  N   UNK d   0      -4.638   9.630 -35.416  0.00  0.00    -0.355 N 
ATOM     14  C   UNK d   0      -3.678  11.518 -36.184  0.00  0.00    -0.022 A 
ATOM     15  C   UNK d   0      -5.582  10.410 -35.975  0.00  0.00     0.042 A 
ATOM     16  H   UNK d   0      -4.796   8.643 -34.927  0.00  0.00     0.166 HD
ATOM     17  C   UNK d   0      -6.969  10.206 -36.117  0.00  0.00     0.062 C 
ATOM     18  C   UNK d   0      -5.018  11.602 -36.468  0.00  0.00    -0.013 A 
ATOM     19  C   UNK d   0      -7.639   9.078 -36.517  0.00  0.00     0.067 A 
ATOM     20  N   UNK d   0      -6.927   7.951 -36.603  0.00  0.00    -0.248 NA
ATOM     21  C   UNK d   0      -8.999   8.756 -36.914  0.00  0.00    -0.011 A 
ATOM     22  C   UNK d   0      -7.723   6.916 -37.029  0.00  0.00     0.066 A 
ATOM     23  C   UNK d   0      -7.117   5.672 -37.126  0.00  0.00     0.062 C 
ATOM     24  C   UNK d   0      -9.041   7.490 -37.216  0.00  0.00    -0.020 A 
ATOM     25  C   UNK d   0      -5.810   5.321 -36.757  0.00  0.00     0.041 A 
ATOM     26  N   UNK d   0      -4.645   5.966 -36.892  0.00  0.00    -0.355 N 
ATOM     27  C   UNK d   0      -5.602   4.086 -36.105  0.00  0.00    -0.022 A 
ATOM     28  C   UNK d   0      -3.701   5.186 -36.343  0.00  0.00     0.042 A 
ATOM     29  H   UNK d   0      -4.487   6.953 -37.393  0.00  0.00     0.166 HD
ATOM     30  C   UNK d   0      -2.316   5.373 -36.203  0.00  0.00     0.062 C 
ATOM     31  C   UNK d   0      -4.270   3.993 -35.838  0.00  0.00    -0.013 A 
ATOM     32  C   UNK d   0      -1.639   6.538 -35.881  0.00  0.00     0.066 A 
BRANCH   8  33
ATOM     33  C   UNK d   0       1.010   8.940 -35.028  0.00  0.00     0.151 C 
BRANCH  33  34
ATOM     34  C   UNK d   0       1.183   9.151 -33.579  0.00  0.00     0.143 C 
ATOM     35  O   UNK d   0       0.639  10.106 -33.006  0.00  0.00    -0.650 OA
BRANCH  34  36
ATOM     36  O   UNK d   0       1.960   8.276 -32.857  0.00  0.00    -0.776 OA
ATOM     37  H   UNK d   0       2.968   8.439 -32.726  0.00  0.00     0.167 HD
ENDBRANCH  34  36
ENDBRANCH  33  34
ENDBRANCH   8  33
BRANCH  31  38
ATOM     38  C   UNK d   0      -3.579   2.848 -35.136  0.00  0.00     0.151 C 
BRANCH  38  39
ATOM     39  C   UNK d   0      -3.126   3.197 -33.806  0.00  0.00     0.143 C 
ATOM     40  O   UNK d   0      -1.992   2.900 -33.391  0.00  0.00    -0.650 OA
BRANCH  39  41
ATOM     41  O   UNK d   0      -3.980   3.890 -32.949  0.00  0.00    -0.776 OA
ATOM     42  H   UNK d   0      -3.751   4.872 -32.764  0.00  0.00     0.167 HD
ENDBRANCH  39  41
ENDBRANCH  38  39
ENDBRANCH  31  38
BRANCH  27  43
ATOM     43  C   UNK d   0      -6.599   3.016 -35.736  0.00  0.00     0.052 C 
BRANCH  43  44
ATOM     44  C   UNK d   0      -7.119   3.148 -34.341  0.00  0.00     0.115 C 
BRANCH  44  45
ATOM     45  C   UNK d   0      -8.576   3.415 -34.454  0.00  0.00     0.139 C 
ATOM     46  O   UNK d   0      -9.188   2.949 -35.447  0.00  0.00    -0.650 OA
BRANCH  45  47
ATOM     47  O   UNK d   0      -9.277   4.144 -33.518  0.00  0.00    -0.776 OA
ATOM     48  H   UNK d   0      -8.839   4.876 -32.935  0.00  0.00     0.167 HD
ENDBRANCH  45  47
ENDBRANCH  44  45
ENDBRANCH  43  44
ENDBRANCH  27  43
BRANCH  24  49
ATOM     49  C   UNK d   0     -10.236   6.736 -37.632  0.00  0.00     0.052 C 
BRANCH  49  50
ATOM     50  C   UNK d   0     -10.695   5.826 -36.522  0.00  0.00     0.115 C 
BRANCH  50  51
ATOM     51  C   UNK d   0     -11.343   6.450 -35.376  0.00  0.00     0.139 C 
ATOM     52  O   UNK d   0     -12.554   6.774 -35.377  0.00  0.00    -0.650 OA
BRANCH  51  53
ATOM     53  O   UNK d   0     -10.608   6.707 -34.229  0.00  0.00    -0.776 OA
ATOM     54  H   UNK d   0     -10.129   5.941 -33.790  0.00  0.00     0.167 HD
ENDBRANCH  51  53
ENDBRANCH  50  51
ENDBRANCH  49  50
ENDBRANCH  24  49
BRANCH  21  55
ATOM     55  C   UNK d   0     -10.116   9.746 -36.945  0.00  0.00     0.151 C 
BRANCH  55  56
ATOM     56  C   UNK d   0     -10.347  10.359 -35.629  0.00  0.00     0.143 C 
ATOM     57  O   UNK d   0     -10.748   9.710 -34.642  0.00  0.00    -0.650 OA
BRANCH  56  58
ATOM     58  O   UNK d   0     -10.101  11.725 -35.497  0.00  0.00    -0.776 OA
ATOM     59  H   UNK d   0     -10.948  12.321 -35.479  0.00  0.00     0.167 HD
ENDBRANCH  56  58
ENDBRANCH  55  56
ENDBRANCH  21  55
BRANCH  18  60
ATOM     60  C   UNK d   0      -5.682  12.761 -37.169  0.00  0.00     0.151 C 
BRANCH  60  61
ATOM     61  C   UNK d   0      -6.528  13.414 -36.159  0.00  0.00     0.143 C 
ATOM     62  O   UNK d   0      -6.184  13.806 -35.043  0.00  0.00    -0.650 OA
BRANCH  61  63
ATOM     63  O   UNK d   0      -7.881  13.599 -36.534  0.00  0.00    -0.776 OA
ATOM     64  H   UNK d   0      -8.590  12.942 -36.260  0.00  0.00     0.167 HD
ENDBRANCH  61  63
ENDBRANCH  60  61
ENDBRANCH  18  60
BRANCH  14  65
ATOM     65  C   UNK d   0      -2.733  12.652 -36.462  0.00  0.00     0.052 C 
BRANCH  65  66
ATOM     66  C   UNK d   0      -2.726  13.680 -35.387  0.00  0.00     0.115 C 
BRANCH  66  67
ATOM     67  C   UNK d   0      -1.630  14.603 -35.292  0.00  0.00     0.139 C 
ATOM     68  O   UNK d   0      -0.914  14.816 -36.338  0.00  0.00    -0.650 OA
BRANCH  67  69
ATOM     69  O   UNK d   0      -1.220  15.329 -34.174  0.00  0.00    -0.776 OA
ATOM     70  H   UNK d   0      -0.480  14.894 -33.604  0.00  0.00     0.167 HD
ENDBRANCH  67  69
ENDBRANCH  66  67
ENDBRANCH  65  66
ENDBRANCH  14  65
ENDBRANCH   6   7
ENDBRANCH   5   6
ENDBRANCH   2   5
TORSDOF 28
ENDMDL
MODEL 4
REMARK VINA RESULT:      -8.0      2.019      2.734
REMARK  28 active torsions:
REMARK  status: ('A' for Active; 'I' for Inactive)
REMARK    1  A    between atoms: C_2  and  O_3 
REMARK    2  A    between atoms: C_2  and  C_4 
REMARK    3  A    between atoms: C_4  and  C_5 
REMARK    4  A    between atoms: C_5  and  C_6 
REMARK    5  A    between atoms: C_7  and  C_8 
REMARK    6  A    between atoms: C_8  and  C_9 
REMARK    7  A    between atoms: C_9  and  O_11 
REMARK    8  A    between atoms: C_28  and  C_29 
REMARK    9  A    between atoms: C_29  and  C_30 
REMARK   10  A    between atoms: C_30  and  O_32 
REMARK   11  A    between atoms: C_33  and  C_34 
REMARK   12  A    between atoms: C_34  and  C_35 
REMARK   13  A    between atoms: C_35  and  C_36 
REMARK   14  A    between atoms: C_36  and  O_38 
REMARK   15  A    between atoms: C_39  and  C_40 
REMARK   16  A    between atoms: C_40  and  C_41 
REMARK   17  A    between atoms: C_41  and  C_42 
REMARK   18  A    between atoms: C_42  and  O_44 
REMARK   19  A    between atoms: C_45  and  C_46 
REMARK   20  A    between atoms: C_46  and  C_47 
REMARK   21  A    between atoms: C_47  and  O_49 
REMARK   22  A    between atoms: C_50  and  C_51 
REMARK   23  A    between atoms: C_51  and  C_52 
REMARK   24  A    between atoms: C_52  and  O_54 
REMARK   25  A    between atoms: C_55  and  C_56 
REMARK   26  A    between atoms: C_56  and  C_57 
REMARK   27  A    between atoms: C_57  and  C_58 
REMARK   28  A    between atoms: C_58  and  O_60 
ROOT
ATOM      1  O   UNK d   0       2.989   8.934 -31.796  0.00  0.00    -0.650 OA
ATOM      2  C   UNK d   0       2.674   9.025 -33.003  0.00  0.00     0.139 C 
ENDROOT
BRANCH   2   3
ATOM      3  O   UNK d   0       3.657   9.234 -33.941  0.00  0.00    -0.776 OA
ATOM      4  H   UNK d   0       4.501   8.660 -33.958  0.00  0.00     0.167 HD
ENDBRANCH   2   3
BRANCH   2   5
ATOM      5  C   UNK d   0       1.247   8.909 -33.415  0.00  0.00     0.115 C 
BRANCH   5   6
ATOM      6  C   UNK d   0       1.139   8.914 -34.916  0.00  0.00     0.052 C 
BRANCH   6   7
ATOM      7  C   UNK d   0      -0.045   8.122 -35.417  0.00  0.00    -0.020 A 
ATOM      8  C   UNK d   0      -0.059   6.879 -35.826  0.00  0.00    -0.011 A 
ATOM      9  C   UNK d   0      -1.420   6.555 -36.219  0.00  0.00     0.067 A 
ATOM     10  C   UNK d   0      -2.091   5.423 -36.708  0.00  0.00     0.062 C 
ATOM     11  N   UNK d   0      -2.168   7.661 -36.021  0.00  0.00    -0.248 NA
ATOM     12  C   UNK d   0      -3.473   5.217 -36.768  0.00  0.00     0.041 A 
ATOM     13  N   UNK d   0      -4.477   6.038 -37.133  0.00  0.00    -0.355 N 
ATOM     14  C   UNK d   0      -3.997   3.984 -36.339  0.00  0.00    -0.022 A 
ATOM     15  C   UNK d   0      -5.624   5.360 -36.939  0.00  0.00     0.042 A 
ATOM     16  H   UNK d   0      -4.375   7.069 -37.537  0.00  0.00     0.166 HD
ATOM     17  C   UNK d   0      -6.961   5.745 -37.160  0.00  0.00     0.062 C 
ATOM     18  C   UNK d   0      -5.363   4.068 -36.442  0.00  0.00    -0.013 A 
ATOM     19  C   UNK d   0      -7.583   6.924 -36.838  0.00  0.00     0.067 A 
ATOM     20  N   UNK d   0      -6.801   7.932 -36.441  0.00  0.00    -0.248 NA
ATOM     21  C   UNK d   0      -8.954   7.405 -36.795  0.00  0.00    -0.011 A 
ATOM     22  C   UNK d   0      -7.561   9.035 -36.140  0.00  0.00     0.066 A 
ATOM     23  C   UNK d   0      -6.870  10.172 -35.748  0.00  0.00     0.062 C 
ATOM     24  C   UNK d   0      -8.935   8.639 -36.382  0.00  0.00    -0.020 A 
ATOM     25  C   UNK d   0      -5.480  10.362 -35.707  0.00  0.00     0.041 A 
ATOM     26  N   UNK d   0      -4.484   9.552 -35.330  0.00  0.00    -0.355 N 
ATOM     27  C   UNK d   0      -4.955  11.599 -36.142  0.00  0.00    -0.022 A 
ATOM     28  C   UNK d   0      -3.339  10.229 -35.514  0.00  0.00     0.042 A 
ATOM     29  H   UNK d   0      -4.588   8.520 -34.914  0.00  0.00     0.166 HD
ATOM     30  C   UNK d   0      -2.003   9.862 -35.290  0.00  0.00     0.062 C 
ATOM     31  C   UNK d   0      -3.601  11.523 -36.024  0.00  0.00    -0.013 A 
ATOM     32  C   UNK d   0      -1.400   8.639 -35.539  0.00  0.00     0.066 A 
BRANCH   8  33
ATOM     33  C   UNK d   0       1.089   5.956 -35.891  0.00  0.00     0.151 C 
BRANCH  33  34
ATOM     34  C   UNK d   0       1.635   5.819 -37.253  0.00  0.00     0.143 C 
ATOM     35  O   UNK d   0       2.402   6.674 -37.720  0.00  0.00    -0.650 OA
BRANCH  34  36
ATOM     36  O   UNK d   0       1.286   4.728 -38.014  0.00  0.00    -0.776 OA
ATOM     37  H   UNK d   0       1.327   3.774 -37.631  0.00  0.00     0.167 HD
ENDBRANCH  34  36
ENDBRANCH  33  34
ENDBRANCH   8  33
BRANCH  31  38
ATOM     38  C   UNK d   0      -2.613  12.608 -36.385  0.00  0.00     0.151 C 
BRANCH  38  39
ATOM     39  C   UNK d   0      -1.934  12.354 -37.638  0.00  0.00     0.143 C 
ATOM     40  O   UNK d   0      -2.550  12.130 -38.695  0.00  0.00    -0.650 OA
BRANCH  39  41
ATOM     41  O   UNK d   0      -0.540  12.359 -37.676  0.00  0.00    -0.776 OA
ATOM     42  H   UNK d   0      -0.063  13.004 -37.038  0.00  0.00     0.167 HD
ENDBRANCH  39  41
ENDBRANCH  38  39
ENDBRANCH  31  38
BRANCH  27  43
ATOM     43  C   UNK d   0      -5.678  12.821 -36.651  0.00  0.00     0.052 C 
BRANCH  43  44
ATOM     44  C   UNK d   0      -6.397  13.573 -35.578  0.00  0.00     0.115 C 
BRANCH  44  45
ATOM     45  C   UNK d   0      -7.804  13.719 -36.032  0.00  0.00     0.139 C 
ATOM     46  O   UNK d   0      -8.069  13.460 -37.232  0.00  0.00    -0.650 OA
BRANCH  45  47
ATOM     47  O   UNK d   0      -8.822  14.118 -35.193  0.00  0.00    -0.776 OA
ATOM     48  H   UNK d   0      -9.526  14.823 -35.463  0.00  0.00     0.167 HD
ENDBRANCH  45  47
ENDBRANCH  44  45
ENDBRANCH  43  44
ENDBRANCH  27  43
BRANCH  24  49
ATOM     49  C   UNK d   0     -10.104   9.522 -36.228  0.00  0.00     0.052 C 
BRANCH  49  50
ATOM     50  C   UNK d   0     -10.116  10.570 -37.311  0.00  0.00     0.115 C 
BRANCH  50  51
ATOM     51  C   UNK d   0     -11.214  11.527 -37.298  0.00  0.00     0.139 C 
ATOM     52  O   UNK d   0     -12.330  11.284 -37.815  0.00  0.00    -0.650 OA
BRANCH  51  53
ATOM     53  O   UNK d   0     -11.038  12.764 -36.696  0.00  0.00    -0.776 OA
ATOM     54  H   UNK d   0     -11.770  13.112 -36.102  0.00  0.00     0.167 HD
ENDBRANCH  51  53
ENDBRANCH  50  51
ENDBRANCH  49  50
ENDBRANCH  24  49
BRANCH  21  55
ATOM     55  C   UNK d   0     -10.140   6.581 -37.175  0.00  0.00     0.151 C 
BRANCH  55  56
ATOM     56  C   UNK d   0     -10.447   6.687 -38.610  0.00  0.00     0.143 C 
ATOM     57  O   UNK d   0     -11.254   7.519 -39.068  0.00  0.00    -0.650 OA
BRANCH  56  58
ATOM     58  O   UNK d   0      -9.799   5.811 -39.479  0.00  0.00    -0.776 OA
ATOM     59  H   UNK d   0      -9.118   6.257 -40.121  0.00  0.00     0.167 HD
ENDBRANCH  56  58
ENDBRANCH  55  56
ENDBRANCH  21  55
BRANCH  18  60
ATOM     60  C   UNK d   0      -6.327   2.967 -36.076  0.00  0.00     0.151 C 
BRANCH  60  61
ATOM     61  C   UNK d   0      -6.536   3.078 -34.625  0.00  0.00     0.143 C 
ATOM     62  O   UNK d   0      -6.922   4.069 -34.004  0.00  0.00    -0.650 OA
BRANCH  61  63
ATOM     63  O   UNK d   0      -6.255   1.904 -33.884  0.00  0.00    -0.776 OA
ATOM     64  H   UNK d   0      -5.327   1.521 -33.851  0.00  0.00     0.167 HD
ENDBRANCH  61  63
ENDBRANCH  60  61
ENDBRANCH  18  60
BRANCH  14  65
ATOM     65  C   UNK d   0      -3.306   2.712 -35.937  0.00  0.00     0.052 C 
BRANCH  65  66
ATOM     66  C   UNK d   0      -2.752   1.960 -37.095  0.00  0.00     0.115 C 
BRANCH  66  67
ATOM     67  C   UNK d   0      -1.392   2.181 -37.502  0.00  0.00     0.139 C 
ATOM     68  O   UNK d   0      -0.448   1.824 -36.706  0.00  0.00    -0.650 OA
BRANCH  67  69
ATOM     69  O   UNK d   0      -0.940   2.753 -38.690  0.00  0.00    -0.776 OA
ATOM     70  H   UNK d   0      -0.952   3.783 -38.725  0.00  0.00     0.167 HD
ENDBRANCH  67  69
ENDBRANCH  66  67
ENDBRANCH  65  66
ENDBRANCH  14  65
ENDBRANCH   6   7
ENDBRANCH   5   6
ENDBRANCH   2   5
TORSDOF 28
ENDMDL
MODEL 5
REMARK VINA RESULT:      -7.9      1.877      7.666
REMARK  28 active torsions:
REMARK  status: ('A' for Active; 'I' for Inactive)
REMARK    1  A    between atoms: C_2  and  O_3 
REMARK    2  A    between atoms: C_2  and  C_4 
REMARK    3  A    between atoms: C_4  and  C_5 
REMARK    4  A    between atoms: C_5  and  C_6 
REMARK    5  A    between atoms: C_7  and  C_8 
REMARK    6  A    between atoms: C_8  and  C_9 
REMARK    7  A    between atoms: C_9  and  O_11 
REMARK    8  A    between atoms: C_28  and  C_29 
REMARK    9  A    between atoms: C_29  and  C_30 
REMARK   10  A    between atoms: C_30  and  O_32 
REMARK   11  A    between atoms: C_33  and  C_34 
REMARK   12  A    between atoms: C_34  and  C_35 
REMARK   13  A    between atoms: C_35  and  C_36 
REMARK   14  A    between atoms: C_36  and  O_38 
REMARK   15  A    between atoms: C_39  and  C_40 
REMARK   16  A    between atoms: C_40  and  C_41 
REMARK   17  A    between atoms: C_41  and  C_42 
REMARK   18  A    between atoms: C_42  and  O_44 
REMARK   19  A    between atoms: C_45  and  C_46 
REMARK   20  A    between atoms: C_46  and  C_47 
REMARK   21  A    between atoms: C_47  and  O_49 
REMARK   22  A    between atoms: C_50  and  C_51 
REMARK   23  A    between atoms: C_51  and  C_52 
REMARK   24  A    between atoms: C_52  and  O_54 
REMARK   25  A    between atoms: C_55  and  C_56 
REMARK   26  A    between atoms: C_56  and  C_57 
REMARK   27  A    between atoms: C_57  and  C_58 
REMARK   28  A    between atoms: C_58  and  O_60 
ROOT
ATOM      1  O   UNK d   0       0.618  -0.248 -33.608  0.00  0.00    -0.650 OA
ATOM      2  C   UNK d   0       0.198   0.841 -34.059  0.00  0.00     0.139 C 
ENDROOT
BRANCH   2   3
ATOM      3  O   UNK d   0       0.945   1.980 -33.872  0.00  0.00    -0.776 OA
ATOM      4  H   UNK d   0       1.945   1.927 -33.670  0.00  0.00     0.167 HD
ENDBRANCH   2   3
BRANCH   2   5
ATOM      5  C   UNK d   0      -1.099   0.898 -34.790  0.00  0.00     0.115 C 
BRANCH   5   6
ATOM      6  C   UNK d   0      -0.861   1.196 -36.245  0.00  0.00     0.052 C 
BRANCH   6   7
ATOM      7  C   UNK d   0      -1.783   2.267 -36.777  0.00  0.00    -0.020 A 
ATOM      8  C   UNK d   0      -2.811   2.113 -37.571  0.00  0.00    -0.011 A 
ATOM      9  C   UNK d   0      -3.383   3.426 -37.818  0.00  0.00     0.067 A 
ATOM     10  C   UNK d   0      -4.474   3.936 -38.539  0.00  0.00     0.062 C 
ATOM     11  N   UNK d   0      -2.637   4.323 -37.138  0.00  0.00    -0.248 NA
ATOM     12  C   UNK d   0      -5.038   5.212 -38.433  0.00  0.00     0.041 A 
ATOM     13  N   UNK d   0      -4.468   6.428 -38.329  0.00  0.00    -0.355 N 
ATOM     14  C   UNK d   0      -6.438   5.334 -38.363  0.00  0.00    -0.022 A 
ATOM     15  C   UNK d   0      -5.470   7.316 -38.186  0.00  0.00     0.042 A 
ATOM     16  H   UNK d   0      -3.380   6.655 -38.375  0.00  0.00     0.166 HD
ATOM     17  C   UNK d   0      -5.434   8.717 -38.038  0.00  0.00     0.062 C 
ATOM     18  C   UNK d   0      -6.719   6.667 -38.202  0.00  0.00    -0.013 A 
ATOM     19  C   UNK d   0      -4.619   9.479 -37.239  0.00  0.00     0.067 A 
ATOM     20  N   UNK d   0      -3.585   8.860 -36.664  0.00  0.00    -0.248 NA
ATOM     21  C   UNK d   0      -4.580  10.867 -36.810  0.00  0.00    -0.011 A 
ATOM     22  C   UNK d   0      -2.874   9.742 -35.887  0.00  0.00     0.066 A 
ATOM     23  C   UNK d   0      -1.746   9.237 -35.258  0.00  0.00     0.062 C 
ATOM     24  C   UNK d   0      -3.559  11.013 -36.015  0.00  0.00    -0.020 A 
ATOM     25  C   UNK d   0      -1.188   7.956 -35.388  0.00  0.00     0.041 A 
ATOM     26  N   UNK d   0      -1.755   6.746 -35.477  0.00  0.00    -0.355 N 
ATOM     27  C   UNK d   0       0.216   7.835 -35.463  0.00  0.00    -0.022 A 
ATOM     28  C   UNK d   0      -0.757   5.858 -35.611  0.00  0.00     0.042 A 
ATOM     29  H   UNK d   0      -2.847   6.518 -35.420  0.00  0.00     0.166 HD
ATOM     30  C   UNK d   0      -0.778   4.461 -35.749  0.00  0.00     0.062 C 
ATOM     31  C   UNK d   0       0.498   6.511 -35.605  0.00  0.00    -0.013 A 
ATOM     32  C   UNK d   0      -1.658   3.689 -36.491  0.00  0.00     0.066 A 
BRANCH   8  33
ATOM     33  C   UNK d   0      -3.313   0.846 -38.133  0.00  0.00     0.151 C 
BRANCH  33  34
ATOM     34  C   UNK d   0      -2.923   0.651 -39.541  0.00  0.00     0.143 C 
ATOM     35  O   UNK d   0      -2.043   1.352 -40.060  0.00  0.00    -0.650 OA
BRANCH  34  36
ATOM     36  O   UNK d   0      -3.547  -0.322 -40.287  0.00  0.00    -0.776 OA
ATOM     37  H   UNK d   0      -4.310  -0.890 -39.893  0.00  0.00     0.167 HD
ENDBRANCH  34  36
ENDBRANCH  33  34
ENDBRANCH   8  33
BRANCH  31  38
ATOM     38  C   UNK d   0       1.874   5.902 -35.740  0.00  0.00     0.151 C 
BRANCH  38  39
ATOM     39  C   UNK d   0       2.352   5.894 -37.106  0.00  0.00     0.143 C 
ATOM     40  O   UNK d   0       2.848   6.900 -37.644  0.00  0.00    -0.650 OA
BRANCH  39  41
ATOM     41  O   UNK d   0       2.261   4.723 -37.858  0.00  0.00    -0.776 OA
ATOM     42  H   UNK d   0       2.476   3.845 -37.374  0.00  0.00     0.167 HD
ENDBRANCH  39  41
ENDBRANCH  38  39
ENDBRANCH  31  38
BRANCH  27  43
ATOM     43  C   UNK d   0       1.275   8.908 -35.404  0.00  0.00     0.052 C 
BRANCH  43  44
ATOM     44  C   UNK d   0       2.177   8.784 -34.220  0.00  0.00     0.115 C 
BRANCH  44  45
ATOM     45  C   UNK d   0       1.374   9.173 -33.031  0.00  0.00     0.139 C 
ATOM     46  O   UNK d   0       1.375   8.404 -32.038  0.00  0.00    -0.650 OA
BRANCH  45  47
ATOM     47  O   UNK d   0       0.638  10.337 -32.975  0.00  0.00    -0.776 OA
ATOM     48  H   UNK d   0      -0.388  10.346 -32.854  0.00  0.00     0.167 HD
ENDBRANCH  45  47
ENDBRANCH  44  45
ENDBRANCH  43  44
ENDBRANCH  27  43
BRANCH  24  49
ATOM     49  C   UNK d   0      -3.125  12.270 -35.382  0.00  0.00     0.052 C 
BRANCH  49  50
ATOM     50  C   UNK d   0      -1.991  12.886 -36.161  0.00  0.00     0.115 C 
BRANCH  50  51
ATOM     51  C   UNK d   0      -1.547  14.212 -35.753  0.00  0.00     0.139 C 
ATOM     52  O   UNK d   0      -0.814  14.931 -36.473  0.00  0.00    -0.650 OA
BRANCH  51  53
ATOM     53  O   UNK d   0      -1.938  14.718 -34.523  0.00  0.00    -0.776 OA
ATOM     54  H   UNK d   0      -2.714  14.284 -34.055  0.00  0.00     0.167 HD
ENDBRANCH  51  53
ENDBRANCH  50  51
ENDBRANCH  49  50
ENDBRANCH  24  49
BRANCH  21  55
ATOM     55  C   UNK d   0      -5.564  11.903 -37.241  0.00  0.00     0.151 C 
BRANCH  55  56
ATOM     56  C   UNK d   0      -6.953  11.454 -37.059  0.00  0.00     0.143 C 
ATOM     57  O   UNK d   0      -7.781  11.426 -37.991  0.00  0.00    -0.650 OA
BRANCH  56  58
ATOM     58  O   UNK d   0      -7.341  11.046 -35.784  0.00  0.00    -0.776 OA
ATOM     59  H   UNK d   0      -7.580  11.816 -35.134  0.00  0.00     0.167 HD
ENDBRANCH  56  58
ENDBRANCH  55  56
ENDBRANCH  21  55
BRANCH  18  60
ATOM     60  C   UNK d   0      -8.106   7.249 -38.072  0.00  0.00     0.151 C 
BRANCH  60  61
ATOM     61  C   UNK d   0      -8.453   7.151 -36.646  0.00  0.00     0.143 C 
ATOM     62  O   UNK d   0      -9.126   6.273 -36.105  0.00  0.00    -0.650 OA
BRANCH  61  63
ATOM     63  O   UNK d   0      -7.946   8.190 -35.830  0.00  0.00    -0.776 OA
ATOM     64  H   UNK d   0      -7.071   8.636 -36.042  0.00  0.00     0.167 HD
ENDBRANCH  61  63
ENDBRANCH  60  61
ENDBRANCH  18  60
BRANCH  14  65
ATOM     65  C   UNK d   0      -7.521   4.307 -38.533  0.00  0.00     0.052 C 
BRANCH  65  66
ATOM     66  C   UNK d   0      -8.201   4.391 -39.853  0.00  0.00     0.115 C 
BRANCH  66  67
ATOM     67  C   UNK d   0      -7.656   3.688 -40.980  0.00  0.00     0.139 C 
ATOM     68  O   UNK d   0      -6.562   4.117 -41.502  0.00  0.00    -0.650 OA
BRANCH  67  69
ATOM     69  O   UNK d   0      -8.173   2.557 -41.611  0.00  0.00    -0.776 OA
ATOM     70  H   UNK d   0      -8.988   2.717 -42.221  0.00  0.00     0.167 HD
ENDBRANCH  67  69
ENDBRANCH  66  67
ENDBRANCH  65  66
ENDBRANCH  14  65
ENDBRANCH   6   7
ENDBRANCH   5   6
ENDBRANCH   2   5
TORSDOF 28
ENDMDL
MODEL 6
REMARK VINA RESULT:      -7.9      1.501      2.330
REMARK  28 active torsions:
REMARK  status: ('A' for Active; 'I' for Inactive)
REMARK    1  A    between atoms: C_2  and  O_3 
REMARK    2  A    between atoms: C_2  and  C_4 
REMARK    3  A    between atoms: C_4  and  C_5 
REMARK    4  A    between atoms: C_5  and  C_6 
REMARK    5  A    between atoms: C_7  and  C_8 
REMARK    6  A    between atoms: C_8  and  C_9 
REMARK    7  A    between atoms: C_9  and  O_11 
REMARK    8  A    between atoms: C_28  and  C_29 
REMARK    9  A    between atoms: C_29  and  C_30 
REMARK   10  A    between atoms: C_30  and  O_32 
REMARK   11  A    between atoms: C_33  and  C_34 
REMARK   12  A    between atoms: C_34  and  C_35 
REMARK   13  A    between atoms: C_35  and  C_36 
REMARK   14  A    between atoms: C_36  and  O_38 
REMARK   15  A    between atoms: C_39  and  C_40 
REMARK   16  A    between atoms: C_40  and  C_41 
REMARK   17  A    between atoms: C_41  and  C_42 
REMARK   18  A    between atoms: C_42  and  O_44 
REMARK   19  A    between atoms: C_45  and  C_46 
REMARK   20  A    between atoms: C_46  and  C_47 
REMARK   21  A    between atoms: C_47  and  O_49 
REMARK   22  A    between atoms: C_50  and  C_51 
REMARK   23  A    between atoms: C_51  and  C_52 
REMARK   24  A    between atoms: C_52  and  O_54 
REMARK   25  A    between atoms: C_55  and  C_56 
REMARK   26  A    between atoms: C_56  and  C_57 
REMARK   27  A    between atoms: C_57  and  C_58 
REMARK   28  A    between atoms: C_58  and  O_60 
ROOT
ATOM      1  O   UNK d   0       3.227   8.641 -32.068  0.00  0.00    -0.650 OA
ATOM      2  C   UNK d   0       2.390   9.554 -32.243  0.00  0.00     0.139 C 
ENDROOT
BRANCH   2   3
ATOM      3  O   UNK d   0       2.709  10.840 -31.879  0.00  0.00    -0.776 OA
ATOM      4  H   UNK d   0       2.026  11.596 -31.958  0.00  0.00     0.167 HD
ENDBRANCH   2   3
BRANCH   2   5
ATOM      5  C   UNK d   0       1.060   9.245 -32.840  0.00  0.00     0.115 C 
BRANCH   5   6
ATOM      6  C   UNK d   0       1.144   9.289 -34.342  0.00  0.00     0.052 C 
BRANCH   6   7
ATOM      7  C   UNK d   0       0.137   8.381 -35.007  0.00  0.00    -0.020 A 
ATOM      8  C   UNK d   0       0.311   7.143 -35.393  0.00  0.00    -0.011 A 
ATOM      9  C   UNK d   0      -0.933   6.683 -35.988  0.00  0.00     0.067 A 
ATOM     10  C   UNK d   0      -1.402   5.489 -36.556  0.00  0.00     0.062 C 
ATOM     11  N   UNK d   0      -1.809   7.708 -35.927  0.00  0.00    -0.248 NA
ATOM     12  C   UNK d   0      -2.731   5.145 -36.827  0.00  0.00     0.041 A 
ATOM     13  N   UNK d   0      -3.742   5.860 -37.357  0.00  0.00    -0.355 N 
ATOM     14  C   UNK d   0      -3.190   3.865 -36.465  0.00  0.00    -0.022 A 
ATOM     15  C   UNK d   0      -4.832   5.070 -37.333  0.00  0.00     0.042 A 
ATOM     16  H   UNK d   0      -3.681   6.895 -37.759  0.00  0.00     0.166 HD
ATOM     17  C   UNK d   0      -6.150   5.318 -37.766  0.00  0.00     0.062 C 
ATOM     18  C   UNK d   0      -4.525   3.811 -36.780  0.00  0.00    -0.013 A 
ATOM     19  C   UNK d   0      -6.928   6.429 -37.565  0.00  0.00     0.067 A 
ATOM     20  N   UNK d   0      -6.322   7.510 -37.067  0.00  0.00    -0.248 NA
ATOM     21  C   UNK d   0      -8.330   6.768 -37.744  0.00  0.00    -0.011 A 
ATOM     22  C   UNK d   0      -7.226   8.532 -36.907  0.00  0.00     0.066 A 
ATOM     23  C   UNK d   0      -6.721   9.733 -36.431  0.00  0.00     0.062 C 
ATOM     24  C   UNK d   0      -8.499   7.999 -37.353  0.00  0.00    -0.020 A 
ATOM     25  C   UNK d   0      -5.381  10.062 -36.178  0.00  0.00     0.041 A 
ATOM     26  N   UNK d   0      -4.380   9.357 -35.637  0.00  0.00    -0.355 N 
ATOM     27  C   UNK d   0      -4.920  11.345 -36.546  0.00  0.00    -0.022 A 
ATOM     28  C   UNK d   0      -3.294  10.146 -35.652  0.00  0.00     0.042 A 
ATOM     29  H   UNK d   0      -4.445   8.320 -35.225  0.00  0.00     0.166 HD
ATOM     30  C   UNK d   0      -1.980   9.915 -35.216  0.00  0.00     0.062 C 
ATOM     31  C   UNK d   0      -3.601  11.406 -36.217  0.00  0.00    -0.013 A 
ATOM     32  C   UNK d   0      -1.226   8.759 -35.348  0.00  0.00     0.066 A 
BRANCH   8  33
ATOM     33  C   UNK d   0       1.541   6.341 -35.263  0.00  0.00     0.151 C 
BRANCH  33  34
ATOM     34  C   UNK d   0       2.254   6.177 -36.543  0.00  0.00     0.143 C 
ATOM     35  O   UNK d   0       2.442   7.144 -37.295  0.00  0.00    -0.650 OA
BRANCH  34  36
ATOM     36  O   UNK d   0       2.714   4.932 -36.905  0.00  0.00    -0.776 OA
ATOM     37  H   UNK d   0       3.301   4.802 -37.741  0.00  0.00     0.167 HD
ENDBRANCH  34  36
ENDBRANCH  33  34
ENDBRANCH   8  33
BRANCH  31  38
ATOM     38  C   UNK d   0      -2.681  12.584 -36.438  0.00  0.00     0.151 C 
BRANCH  38  39
ATOM     39  C   UNK d   0      -1.925  12.484 -37.668  0.00  0.00     0.143 C 
ATOM     40  O   UNK d   0      -2.472  12.345 -38.776  0.00  0.00    -0.650 OA
BRANCH  39  41
ATOM     41  O   UNK d   0      -0.532  12.544 -37.625  0.00  0.00    -0.776 OA
ATOM     42  H   UNK d   0      -0.118  13.137 -36.899  0.00  0.00     0.167 HD
ENDBRANCH  39  41
ENDBRANCH  38  39
ENDBRANCH  31  38
BRANCH  27  43
ATOM     43  C   UNK d   0      -5.672  12.488 -37.182  0.00  0.00     0.052 C 
BRANCH  43  44
ATOM     44  C   UNK d   0      -6.503  13.262 -36.210  0.00  0.00     0.115 C 
BRANCH  44  45
ATOM     45  C   UNK d   0      -7.769  13.601 -36.910  0.00  0.00     0.139 C 
ATOM     46  O   UNK d   0      -8.018  13.022 -37.996  0.00  0.00    -0.650 OA
BRANCH  45  47
ATOM     47  O   UNK d   0      -8.674  14.515 -36.416  0.00  0.00    -0.776 OA
ATOM     48  H   UNK d   0      -8.407  15.471 -36.132  0.00  0.00     0.167 HD
ENDBRANCH  45  47
ENDBRANCH  44  45
ENDBRANCH  43  44
ENDBRANCH  27  43
BRANCH  24  49
ATOM     49  C   UNK d   0      -9.760   8.759 -37.398  0.00  0.00     0.052 C 
BRANCH  49  50
ATOM     50  C   UNK d   0     -10.622   8.416 -36.211  0.00  0.00     0.115 C 
BRANCH  50  51
ATOM     51  C   UNK d   0      -9.991   8.450 -34.898  0.00  0.00     0.139 C 
ATOM     52  O   UNK d   0      -9.622   9.516 -34.353  0.00  0.00    -0.650 OA
BRANCH  51  53
ATOM     53  O   UNK d   0      -9.777   7.266 -34.208  0.00  0.00    -0.776 OA
ATOM     54  H   UNK d   0     -10.469   6.974 -33.540  0.00  0.00     0.167 HD
ENDBRANCH  51  53
ENDBRANCH  50  51
ENDBRANCH  49  50
ENDBRANCH  24  49
BRANCH  21  55
ATOM     55  C   UNK d   0      -9.354   5.829 -38.290  0.00  0.00     0.151 C 
BRANCH  55  56
ATOM     56  C   UNK d   0      -9.589   4.687 -37.393  0.00  0.00     0.143 C 
ATOM     57  O   UNK d   0      -9.527   3.503 -37.778  0.00  0.00    -0.650 OA
BRANCH  56  58
ATOM     58  O   UNK d   0      -9.894   4.961 -36.061  0.00  0.00    -0.776 OA
ATOM     59  H   UNK d   0     -10.775   5.486 -35.914  0.00  0.00     0.167 HD
ENDBRANCH  56  58
ENDBRANCH  55  56
ENDBRANCH  21  55
BRANCH  18  60
ATOM     60  C   UNK d   0      -5.420   2.618 -36.551  0.00  0.00     0.151 C 
BRANCH  60  61
ATOM     61  C   UNK d   0      -6.126   2.880 -35.288  0.00  0.00     0.143 C 
ATOM     62  O   UNK d   0      -5.630   2.966 -34.164  0.00  0.00    -0.650 OA
BRANCH  61  63
ATOM     63  O   UNK d   0      -7.527   3.048 -35.405  0.00  0.00    -0.776 OA
ATOM     64  H   UNK d   0      -7.933   3.962 -35.502  0.00  0.00     0.167 HD
ENDBRANCH  61  63
ENDBRANCH  60  61
ENDBRANCH  18  60
BRANCH  14  65
ATOM     65  C   UNK d   0      -2.448   2.670 -35.939  0.00  0.00     0.052 C 
BRANCH  65  66
ATOM     66  C   UNK d   0      -1.564   2.041 -36.957  0.00  0.00     0.115 C 
BRANCH  66  67
ATOM     67  C   UNK d   0      -2.089   1.716 -38.253  0.00  0.00     0.139 C 
ATOM     68  O   UNK d   0      -2.931   0.749 -38.350  0.00  0.00    -0.650 OA
BRANCH  67  69
ATOM     69  O   UNK d   0      -1.798   2.332 -39.470  0.00  0.00    -0.776 OA
ATOM     70  H   UNK d   0      -2.542   2.930 -39.859  0.00  0.00     0.167 HD
ENDBRANCH  67  69
ENDBRANCH  66  67
ENDBRANCH  65  66
ENDBRANCH  14  65
ENDBRANCH   6   7
ENDBRANCH   5   6
ENDBRANCH   2   5
TORSDOF 28
ENDMDL
MODEL 7
REMARK VINA RESULT:      -7.8      1.932      7.510
REMARK  28 active torsions:
REMARK  status: ('A' for Active; 'I' for Inactive)
REMARK    1  A    between atoms: C_2  and  O_3 
REMARK    2  A    between atoms: C_2  and  C_4 
REMARK    3  A    between atoms: C_4  and  C_5 
REMARK    4  A    between atoms: C_5  and  C_6 
REMARK    5  A    between atoms: C_7  and  C_8 
REMARK    6  A    between atoms: C_8  and  C_9 
REMARK    7  A    between atoms: C_9  and  O_11 
REMARK    8  A    between atoms: C_28  and  C_29 
REMARK    9  A    between atoms: C_29  and  C_30 
REMARK   10  A    between atoms: C_30  and  O_32 
REMARK   11  A    between atoms: C_33  and  C_34 
REMARK   12  A    between atoms: C_34  and  C_35 
REMARK   13  A    between atoms: C_35  and  C_36 
REMARK   14  A    between atoms: C_36  and  O_38 
REMARK   15  A    between atoms: C_39  and  C_40 
REMARK   16  A    between atoms: C_40  and  C_41 
REMARK   17  A    between atoms: C_41  and  C_42 
REMARK   18  A    between atoms: C_42  and  O_44 
REMARK   19  A    between atoms: C_45  and  C_46 
REMARK   20  A    between atoms: C_46  and  C_47 
REMARK   21  A    between atoms: C_47  and  O_49 
REMARK   22  A    between atoms: C_50  and  C_51 
REMARK   23  A    between atoms: C_51  and  C_52 
REMARK   24  A    between atoms: C_52  and  O_54 
REMARK   25  A    between atoms: C_55  and  C_56 
REMARK   26  A    between atoms: C_56  and  C_57 
REMARK   27  A    between atoms: C_57  and  C_58 
REMARK   28  A    between atoms: C_58  and  O_60 
ROOT
ATOM      1  O   UNK d   0       1.786   3.206 -35.354  0.00  0.00    -0.650 OA
ATOM      2  C   UNK d   0       2.053   3.945 -34.380  0.00  0.00     0.139 C 
ENDROOT
BRANCH   2   3
ATOM      3  O   UNK d   0       1.743   3.522 -33.109  0.00  0.00    -0.776 OA
ATOM      4  H   UNK d   0       0.782   3.556 -32.762  0.00  0.00     0.167 HD
ENDBRANCH   2   3
BRANCH   2   5
ATOM      5  C   UNK d   0       2.700   5.269 -34.600  0.00  0.00     0.115 C 
BRANCH   5   6
ATOM      6  C   UNK d   0       2.252   5.853 -35.912  0.00  0.00     0.052 C 
BRANCH   6   7
ATOM      7  C   UNK d   0       1.079   6.792 -35.760  0.00  0.00    -0.020 A 
ATOM      8  C   UNK d   0       1.111   8.072 -35.488  0.00  0.00    -0.011 A 
ATOM      9  C   UNK d   0      -0.261   8.549 -35.432  0.00  0.00     0.067 A 
ATOM     10  C   UNK d   0      -0.896   9.782 -35.213  0.00  0.00     0.062 C 
ATOM     11  N   UNK d   0      -1.063   7.492 -35.675  0.00  0.00    -0.248 NA
ATOM     12  C   UNK d   0      -2.232  10.104 -35.474  0.00  0.00     0.041 A 
ATOM     13  N   UNK d   0      -3.369   9.417 -35.255  0.00  0.00    -0.355 N 
ATOM     14  C   UNK d   0      -2.525  11.316 -36.126  0.00  0.00    -0.022 A 
ATOM     15  C   UNK d   0      -4.374  10.158 -35.757  0.00  0.00     0.042 A 
ATOM     16  H   UNK d   0      -3.461   8.436 -34.737  0.00  0.00     0.166 HD
ATOM     17  C   UNK d   0      -5.761   9.911 -35.793  0.00  0.00     0.062 C 
ATOM     18  C   UNK d   0      -3.884  11.356 -36.312  0.00  0.00    -0.013 A 
ATOM     19  C   UNK d   0      -6.423   8.756 -36.123  0.00  0.00     0.067 A 
ATOM     20  N   UNK d   0      -5.686   7.649 -36.240  0.00  0.00    -0.248 NA
ATOM     21  C   UNK d   0      -7.799   8.386 -36.413  0.00  0.00    -0.011 A 
ATOM     22  C   UNK d   0      -6.479   6.582 -36.587  0.00  0.00     0.066 A 
ATOM     23  C   UNK d   0      -5.844   5.355 -36.706  0.00  0.00     0.062 C 
ATOM     24  C   UNK d   0      -7.824   7.114 -36.688  0.00  0.00    -0.020 A 
ATOM     25  C   UNK d   0      -4.503   5.049 -36.427  0.00  0.00     0.041 A 
ATOM     26  N   UNK d   0      -3.372   5.725 -36.659  0.00  0.00    -0.355 N 
ATOM     27  C   UNK d   0      -4.211   3.834 -35.769  0.00  0.00    -0.022 A 
ATOM     28  C   UNK d   0      -2.366   4.985 -36.166  0.00  0.00     0.042 A 
ATOM     29  H   UNK d   0      -3.280   6.706 -37.188  0.00  0.00     0.166 HD
ATOM     30  C   UNK d   0      -0.982   5.214 -36.132  0.00  0.00     0.062 C 
ATOM     31  C   UNK d   0      -2.861   3.786 -35.599  0.00  0.00    -0.013 A 
ATOM     32  C   UNK d   0      -0.319   6.404 -35.881  0.00  0.00     0.066 A 
BRANCH   8  33
ATOM     33  C   UNK d   0       2.311   8.900 -35.269  0.00  0.00     0.151 C 
BRANCH  33  34
ATOM     34  C   UNK d   0       2.681   9.004 -33.846  0.00  0.00     0.143 C 
ATOM     35  O   UNK d   0       2.157   8.268 -32.997  0.00  0.00    -0.650 OA
BRANCH  34  36
ATOM     36  O   UNK d   0       3.619   9.932 -33.458  0.00  0.00    -0.776 OA
ATOM     37  H   UNK d   0       4.389  10.207 -34.083  0.00  0.00     0.167 HD
ENDBRANCH  34  36
ENDBRANCH  33  34
ENDBRANCH   8  33
BRANCH  31  38
ATOM     38  C   UNK d   0      -2.086   2.676 -34.928  0.00  0.00     0.151 C 
BRANCH  38  39
ATOM     39  C   UNK d   0      -1.779   1.583 -35.826  0.00  0.00     0.143 C 
ATOM     40  O   UNK d   0      -0.936   1.686 -36.735  0.00  0.00    -0.650 OA
BRANCH  39  41
ATOM     41  O   UNK d   0      -2.443   0.366 -35.679  0.00  0.00    -0.776 OA
ATOM     42  H   UNK d   0      -3.160   0.144 -36.377  0.00  0.00     0.167 HD
ENDBRANCH  39  41
ENDBRANCH  38  39
ENDBRANCH  31  38
BRANCH  27  43
ATOM     43  C   UNK d   0      -5.146   2.744 -35.309  0.00  0.00     0.052 C 
BRANCH  43  44
ATOM     44  C   UNK d   0      -5.846   3.067 -34.029  0.00  0.00     0.115 C 
BRANCH  44  45
ATOM     45  C   UNK d   0      -5.116   2.349 -32.953  0.00  0.00     0.139 C 
ATOM     46  O   UNK d   0      -4.738   1.172 -33.177  0.00  0.00    -0.650 OA
BRANCH  45  47
ATOM     47  O   UNK d   0      -4.835   2.920 -31.731  0.00  0.00    -0.776 OA
ATOM     48  H   UNK d   0      -4.766   3.941 -31.592  0.00  0.00     0.167 HD
ENDBRANCH  45  47
ENDBRANCH  44  45
ENDBRANCH  43  44
ENDBRANCH  27  43
BRANCH  24  49
ATOM     49  C   UNK d   0      -9.022   6.317 -37.001  0.00  0.00     0.052 C 
BRANCH  49  50
ATOM     50  C   UNK d   0      -9.746   5.936 -35.735  0.00  0.00     0.115 C 
BRANCH  50  51
ATOM     51  C   UNK d   0      -9.111   4.943 -34.880  0.00  0.00     0.139 C 
ATOM     52  O   UNK d   0      -9.122   3.717 -35.143  0.00  0.00    -0.650 OA
BRANCH  51  53
ATOM     53  O   UNK d   0      -8.464   5.346 -33.722  0.00  0.00    -0.776 OA
ATOM     54  H   UNK d   0      -8.694   4.880 -32.862  0.00  0.00     0.167 HD
ENDBRANCH  51  53
ENDBRANCH  50  51
ENDBRANCH  49  50
ENDBRANCH  24  49
BRANCH  21  55
ATOM     55  C   UNK d   0      -8.945   9.342 -36.380  0.00  0.00     0.151 C 
BRANCH  55  56
ATOM     56  C   UNK d   0      -9.213   9.836 -35.021  0.00  0.00     0.143 C 
ATOM     57  O   UNK d   0      -9.552  11.012 -34.784  0.00  0.00    -0.650 OA
BRANCH  56  58
ATOM     58  O   UNK d   0      -9.078   8.936 -33.965  0.00  0.00    -0.776 OA
ATOM     59  H   UNK d   0      -9.888   8.307 -33.821  0.00  0.00     0.167 HD
ENDBRANCH  56  58
ENDBRANCH  55  56
ENDBRANCH  21  55
BRANCH  18  60
ATOM     60  C   UNK d   0      -4.632  12.480 -36.984  0.00  0.00     0.151 C 
BRANCH  60  61
ATOM     61  C   UNK d   0      -5.397  13.149 -35.920  0.00  0.00     0.143 C 
ATOM     62  O   UNK d   0      -4.956  13.608 -34.866  0.00  0.00    -0.650 OA
BRANCH  61  63
ATOM     63  O   UNK d   0      -6.787  13.264 -36.159  0.00  0.00    -0.776 OA
ATOM     64  H   UNK d   0      -7.411  13.594 -35.444  0.00  0.00     0.167 HD
ENDBRANCH  61  63
ENDBRANCH  60  61
ENDBRANCH  18  60
BRANCH  14  65
ATOM     65  C   UNK d   0      -1.637  12.472 -36.493  0.00  0.00     0.052 C 
BRANCH  65  66
ATOM     66  C   UNK d   0      -1.758  13.619 -35.554  0.00  0.00     0.115 C 
BRANCH  66  67
ATOM     67  C   UNK d   0      -1.420  14.941 -35.999  0.00  0.00     0.139 C 
ATOM     68  O   UNK d   0      -0.862  15.078 -37.149  0.00  0.00    -0.650 OA
BRANCH  67  69
ATOM     69  O   UNK d   0      -1.621  16.146 -35.325  0.00  0.00    -0.776 OA
ATOM     70  H   UNK d   0      -1.781  16.971 -35.921  0.00  0.00     0.167 HD
ENDBRANCH  67  69
ENDBRANCH  66  67
ENDBRANCH  65  66
ENDBRANCH  14  65
ENDBRANCH   6   7
ENDBRANCH   5   6
ENDBRANCH   2   5
TORSDOF 28
ENDMDL
MODEL 8
REMARK VINA RESULT:      -7.8      1.468      7.937
REMARK  28 active torsions:
REMARK  status: ('A' for Active; 'I' for Inactive)
REMARK    1  A    between atoms: C_2  and  O_3 
REMARK    2  A    between atoms: C_2  and  C_4 
REMARK    3  A    between atoms: C_4  and  C_5 
REMARK    4  A    between atoms: C_5  and  C_6 
REMARK    5  A    between atoms: C_7  and  C_8 
REMARK    6  A    between atoms: C_8  and  C_9 
REMARK    7  A    between atoms: C_9  and  O_11 
REMARK    8  A    between atoms: C_28  and  C_29 
REMARK    9  A    between atoms: C_29  and  C_30 
REMARK   10  A    between atoms: C_30  and  O_32 
REMARK   11  A    between atoms: C_33  and  C_34 
REMARK   12  A    between atoms: C_34  and  C_35 
REMARK   13  A    between atoms: C_35  and  C_36 
REMARK   14  A    between atoms: C_36  and  O_38 
REMARK   15  A    between atoms: C_39  and  C_40 
REMARK   16  A    between atoms: C_40  and  C_41 
REMARK   17  A    between atoms: C_41  and  C_42 
REMARK   18  A    between atoms: C_42  and  O_44 
REMARK   19  A    between atoms: C_45  and  C_46 
REMARK   20  A    between atoms: C_46  and  C_47 
REMARK   21  A    between atoms: C_47  and  O_49 
REMARK   22  A    between atoms: C_50  and  C_51 
REMARK   23  A    between atoms: C_51  and  C_52 
REMARK   24  A    between atoms: C_52  and  O_54 
REMARK   25  A    between atoms: C_55  and  C_56 
REMARK   26  A    between atoms: C_56  and  C_57 
REMARK   27  A    between atoms: C_57  and  C_58 
REMARK   28  A    between atoms: C_58  and  O_60 
ROOT
ATOM      1  O   UNK d   0      -0.675  14.491 -36.842  0.00  0.00    -0.650 OA
ATOM      2  C   UNK d   0      -1.262  13.444 -37.196  0.00  0.00     0.139 C 
ENDROOT
BRANCH   2   3
ATOM      3  O   UNK d   0      -0.524  12.380 -37.655  0.00  0.00    -0.776 OA
ATOM      4  H   UNK d   0      -0.393  12.222 -38.656  0.00  0.00     0.167 HD
ENDBRANCH   2   3
BRANCH   2   5
ATOM      5  C   UNK d   0      -2.748  13.357 -37.118  0.00  0.00     0.115 C 
BRANCH   5   6
ATOM      6  C   UNK d   0      -3.170  12.917 -35.742  0.00  0.00     0.052 C 
BRANCH   6   7
ATOM      7  C   UNK d   0      -3.738  11.518 -35.728  0.00  0.00    -0.020 A 
ATOM      8  C   UNK d   0      -4.999  11.169 -35.751  0.00  0.00    -0.011 A 
ATOM      9  C   UNK d   0      -5.059   9.717 -35.715  0.00  0.00     0.067 A 
ATOM     10  C   UNK d   0      -6.071   8.744 -35.736  0.00  0.00     0.062 C 
ATOM     11  N   UNK d   0      -3.788   9.264 -35.665  0.00  0.00    -0.248 NA
ATOM     12  C   UNK d   0      -5.924   7.374 -35.976  0.00  0.00     0.041 A 
ATOM     13  N   UNK d   0      -5.008   6.490 -35.536  0.00  0.00    -0.355 N 
ATOM     14  C   UNK d   0      -6.814   6.739 -36.861  0.00  0.00    -0.022 A 
ATOM     15  C   UNK d   0      -5.289   5.313 -36.126  0.00  0.00     0.042 A 
ATOM     16  H   UNK d   0      -4.191   6.690 -34.809  0.00  0.00     0.166 HD
ATOM     17  C   UNK d   0      -4.651   4.061 -36.017  0.00  0.00     0.062 C 
ATOM     18  C   UNK d   0      -6.415   5.429 -36.964  0.00  0.00    -0.013 A 
ATOM     19  C   UNK d   0      -3.310   3.772 -36.038  0.00  0.00     0.067 A 
ATOM     20  N   UNK d   0      -2.467   4.805 -35.953  0.00  0.00    -0.248 NA
ATOM     21  C   UNK d   0      -2.502   2.569 -36.149  0.00  0.00    -0.011 A 
ATOM     22  C   UNK d   0      -1.167   4.365 -36.002  0.00  0.00     0.066 A 
ATOM     23  C   UNK d   0      -0.183   5.335 -35.885  0.00  0.00     0.062 C 
ATOM     24  C   UNK d   0      -1.249   2.923 -36.132  0.00  0.00    -0.020 A 
ATOM     25  C   UNK d   0      -0.351   6.705 -35.631  0.00  0.00     0.041 A 
ATOM     26  N   UNK d   0      -1.253   7.587 -36.080  0.00  0.00    -0.355 N 
ATOM     27  C   UNK d   0       0.540   7.341 -34.740  0.00  0.00    -0.022 A 
ATOM     28  C   UNK d   0      -0.969   8.764 -35.500  0.00  0.00     0.042 A 
ATOM     29  H   UNK d   0      -2.067   7.387 -36.819  0.00  0.00     0.166 HD
ATOM     30  C   UNK d   0      -1.590  10.018 -35.607  0.00  0.00     0.062 C 
ATOM     31  C   UNK d   0       0.156   8.644 -34.650  0.00  0.00    -0.013 A 
ATOM     32  C   UNK d   0      -2.946  10.298 -35.671  0.00  0.00     0.066 A 
BRANCH   8  33
ATOM     33  C   UNK d   0      -6.166  12.069 -35.800  0.00  0.00     0.151 C 
BRANCH  33  34
ATOM     34  C   UNK d   0      -6.717  12.216 -37.159  0.00  0.00     0.143 C 
ATOM     35  O   UNK d   0      -6.834  11.236 -37.908  0.00  0.00    -0.650 OA
BRANCH  34  36
ATOM     36  O   UNK d   0      -7.103  13.461 -37.599  0.00  0.00    -0.776 OA
ATOM     37  H   UNK d   0      -8.097  13.698 -37.727  0.00  0.00     0.167 HD
ENDBRANCH  34  36
ENDBRANCH  33  34
ENDBRANCH   8  33
BRANCH  31  38
ATOM     38  C   UNK d   0       0.807   9.709 -33.800  0.00  0.00     0.151 C 
BRANCH  38  39
ATOM     39  C   UNK d   0       0.827   9.370 -32.393  0.00  0.00     0.143 C 
ATOM     40  O   UNK d   0       1.858   8.983 -31.816  0.00  0.00    -0.650 OA
BRANCH  39  41
ATOM     41  O   UNK d   0      -0.345   9.478 -31.645  0.00  0.00    -0.776 OA
ATOM     42  H   UNK d   0      -0.736  10.419 -31.533  0.00  0.00     0.167 HD
ENDBRANCH  39  41
ENDBRANCH  38  39
ENDBRANCH  31  38
BRANCH  27  43
ATOM     43  C   UNK d   0       1.716   6.768 -33.989  0.00  0.00     0.052 C 
BRANCH  43  44
ATOM     44  C   UNK d   0       2.844   6.361 -34.881  0.00  0.00     0.115 C 
BRANCH  44  45
ATOM     45  C   UNK d   0       3.544   7.610 -35.278  0.00  0.00     0.139 C 
ATOM     46  O   UNK d   0       4.021   8.335 -34.371  0.00  0.00    -0.650 OA
BRANCH  45  47
ATOM     47  O   UNK d   0       3.693   7.998 -36.592  0.00  0.00    -0.776 OA
ATOM     48  H   UNK d   0       2.954   7.867 -37.302  0.00  0.00     0.167 HD
ENDBRANCH  45  47
ENDBRANCH  44  45
ENDBRANCH  43  44
ENDBRANCH  27  43
BRANCH  24  49
ATOM     49  C   UNK d   0      -0.090   2.016 -36.183  0.00  0.00     0.052 C 
BRANCH  49  50
ATOM     50  C   UNK d   0       0.446   1.772 -34.796  0.00  0.00     0.115 C 
BRANCH  50  51
ATOM     51  C   UNK d   0       1.487   2.672 -34.317  0.00  0.00     0.139 C 
ATOM     52  O   UNK d   0       2.560   2.856 -34.938  0.00  0.00    -0.650 OA
BRANCH  51  53
ATOM     53  O   UNK d   0       1.304   3.362 -33.128  0.00  0.00    -0.776 OA
ATOM     54  H   UNK d   0       0.783   4.221 -33.153  0.00  0.00     0.167 HD
ENDBRANCH  51  53
ENDBRANCH  50  51
ENDBRANCH  49  50
ENDBRANCH  24  49
BRANCH  21  55
ATOM     55  C   UNK d   0      -3.067   1.192 -36.257  0.00  0.00     0.151 C 
BRANCH  55  56
ATOM     56  C   UNK d   0      -3.343   0.817 -37.652  0.00  0.00     0.143 C 
ATOM     57  O   UNK d   0      -4.437   1.039 -38.207  0.00  0.00    -0.650 OA
BRANCH  56  58
ATOM     58  O   UNK d   0      -2.326   0.188 -38.369  0.00  0.00    -0.776 OA
ATOM     59  H   UNK d   0      -1.862   0.781 -39.080  0.00  0.00     0.167 HD
ENDBRANCH  56  58
ENDBRANCH  55  56
ENDBRANCH  21  55
BRANCH  18  60
ATOM     60  C   UNK d   0      -7.088   4.385 -37.820  0.00  0.00     0.151 C 
BRANCH  60  61
ATOM     61  C   UNK d   0      -6.419   4.443 -39.128  0.00  0.00     0.143 C 
ATOM     62  O   UNK d   0      -6.436   5.378 -39.930  0.00  0.00    -0.650 OA
BRANCH  61  63
ATOM     63  O   UNK d   0      -5.681   3.287 -39.480  0.00  0.00    -0.776 OA
ATOM     64  H   UNK d   0      -5.464   2.583 -38.796  0.00  0.00     0.167 HD
ENDBRANCH  61  63
ENDBRANCH  60  61
ENDBRANCH  18  60
BRANCH  14  65
ATOM     65  C   UNK d   0      -8.059   7.246 -37.532  0.00  0.00     0.052 C 
BRANCH  65  66
ATOM     66  C   UNK d   0      -9.294   6.974 -36.749  0.00  0.00     0.115 C 
BRANCH  66  67
ATOM     67  C   UNK d   0      -9.602   7.781 -35.602  0.00  0.00     0.139 C 
ATOM     68  O   UNK d   0     -10.093   8.954 -35.791  0.00  0.00    -0.650 OA
BRANCH  67  69
ATOM     69  O   UNK d   0      -9.432   7.453 -34.257  0.00  0.00    -0.776 OA
ATOM     70  H   UNK d   0      -9.825   6.547 -33.965  0.00  0.00     0.167 HD
ENDBRANCH  67  69
ENDBRANCH  66  67
ENDBRANCH  65  66
ENDBRANCH  14  65
ENDBRANCH   6   7
ENDBRANCH   5   6
ENDBRANCH   2   5
TORSDOF 28
ENDMDL
MODEL 9
REMARK VINA RESULT:      -7.7      1.894      2.247
REMARK  28 active torsions:
REMARK  status: ('A' for Active; 'I' for Inactive)
REMARK    1  A    between atoms: C_2  and  O_3 
REMARK    2  A    between atoms: C_2  and  C_4 
REMARK    3  A    between atoms: C_4  and  C_5 
REMARK    4  A    between atoms: C_5  and  C_6 
REMARK    5  A    between atoms: C_7  and  C_8 
REMARK    6  A    between atoms: C_8  and  C_9 
REMARK    7  A    between atoms: C_9  and  O_11 
REMARK    8  A    between atoms: C_28  and  C_29 
REMARK    9  A    between atoms: C_29  and  C_30 
REMARK   10  A    between atoms: C_30  and  O_32 
REMARK   11  A    between atoms: C_33  and  C_34 
REMARK   12  A    between atoms: C_34  and  C_35 
REMARK   13  A    between atoms: C_35  and  C_36 
REMARK   14  A    between atoms: C_36  and  O_38 
REMARK   15  A    between atoms: C_39  and  C_40 
REMARK   16  A    between atoms: C_40  and  C_41 
REMARK   17  A    between atoms: C_41  and  C_42 
REMARK   18  A    between atoms: C_42  and  O_44 
REMARK   19  A    between atoms: C_45  and  C_46 
REMARK   20  A    between atoms: C_46  and  C_47 
REMARK   21  A    between atoms: C_47  and  O_49 
REMARK   22  A    between atoms: C_50  and  C_51 
REMARK   23  A    between atoms: C_51  and  C_52 
REMARK   24  A    between atoms: C_52  and  O_54 
REMARK   25  A    between atoms: C_55  and  C_56 
REMARK   26  A    between atoms: C_56  and  C_57 
REMARK   27  A    between atoms: C_57  and  C_58 
REMARK   28  A    between atoms: C_58  and  O_60 
ROOT
ATOM      1  O   UNK d   0       1.319  10.455 -32.472  0.00  0.00    -0.650 OA
ATOM      2  C   UNK d   0       1.691   9.275 -32.657  0.00  0.00     0.139 C 
ENDROOT
BRANCH   2   3
ATOM      3  O   UNK d   0       1.086   8.260 -31.955  0.00  0.00    -0.776 OA
ATOM      4  H   UNK d   0       1.099   8.245 -30.933  0.00  0.00     0.167 HD
ENDBRANCH   2   3
BRANCH   2   5
ATOM      5  C   UNK d   0       2.779   8.977 -33.631  0.00  0.00     0.115 C 
BRANCH   5   6
ATOM      6  C   UNK d   0       2.271   9.130 -35.038  0.00  0.00     0.052 C 
BRANCH   6   7
ATOM      7  C   UNK d   0       1.094   8.232 -35.332  0.00  0.00    -0.020 A 
ATOM      8  C   UNK d   0       1.104   6.936 -35.516  0.00  0.00    -0.011 A 
ATOM      9  C   UNK d   0      -0.261   6.513 -35.777  0.00  0.00     0.067 A 
ATOM     10  C   UNK d   0      -0.914   5.295 -36.026  0.00  0.00     0.062 C 
ATOM     11  N   UNK d   0      -1.037   7.616 -35.739  0.00  0.00    -0.248 NA
ATOM     12  C   UNK d   0      -2.290   5.046 -35.979  0.00  0.00     0.041 A 
ATOM     13  N   UNK d   0      -3.336   5.763 -36.431  0.00  0.00    -0.355 N 
ATOM     14  C   UNK d   0      -2.751   3.895 -35.315  0.00  0.00    -0.022 A 
ATOM     15  C   UNK d   0      -4.449   5.100 -36.065  0.00  0.00     0.042 A 
ATOM     16  H   UNK d   0      -3.289   6.709 -37.015  0.00  0.00     0.166 HD
ATOM     17  C   UNK d   0      -5.808   5.406 -36.282  0.00  0.00     0.062 C 
ATOM     18  C   UNK d   0      -4.122   3.924 -35.363  0.00  0.00    -0.013 A 
ATOM     19  C   UNK d   0      -6.455   6.607 -36.140  0.00  0.00     0.067 A 
ATOM     20  N   UNK d   0      -5.691   7.688 -35.966  0.00  0.00    -0.248 NA
ATOM     21  C   UNK d   0      -7.838   7.051 -36.113  0.00  0.00    -0.011 A 
ATOM     22  C   UNK d   0      -6.475   8.807 -35.825  0.00  0.00     0.066 A 
ATOM     23  C   UNK d   0      -5.806  10.013 -35.674  0.00  0.00     0.062 C 
ATOM     24  C   UNK d   0      -7.843   8.339 -35.924  0.00  0.00    -0.020 A 
ATOM     25  C   UNK d   0      -4.423  10.244 -35.737  0.00  0.00     0.041 A 
ATOM     26  N   UNK d   0      -3.383   9.539 -35.275  0.00  0.00    -0.355 N 
ATOM     27  C   UNK d   0      -3.961  11.397 -36.407  0.00  0.00    -0.022 A 
ATOM     28  C   UNK d   0      -2.272  10.202 -35.632  0.00  0.00     0.042 A 
ATOM     29  H   UNK d   0      -3.433   8.594 -34.679  0.00  0.00     0.166 HD
ATOM     30  C   UNK d   0      -0.916   9.915 -35.414  0.00  0.00     0.062 C 
ATOM     31  C   UNK d   0      -2.602  11.379 -36.346  0.00  0.00    -0.013 A 
ATOM     32  C   UNK d   0      -0.282   8.684 -35.475  0.00  0.00     0.066 A 
BRANCH   8  33
ATOM     33  C   UNK d   0       2.279   6.046 -35.476  0.00  0.00     0.151 C 
BRANCH  33  34
ATOM     34  C   UNK d   0       2.607   5.475 -36.794  0.00  0.00     0.143 C 
ATOM     35  O   UNK d   0       3.024   4.312 -36.898  0.00  0.00    -0.650 OA
BRANCH  34  36
ATOM     36  O   UNK d   0       2.450   6.246 -37.923  0.00  0.00    -0.776 OA
ATOM     37  H   UNK d   0       1.912   7.123 -37.900  0.00  0.00     0.167 HD
ENDBRANCH  34  36
ENDBRANCH  33  34
ENDBRANCH   8  33
BRANCH  31  38
ATOM     38  C   UNK d   0      -1.668  12.408 -36.941  0.00  0.00     0.151 C 
BRANCH  38  39
ATOM     39  C   UNK d   0      -1.540  13.591 -36.118  0.00  0.00     0.143 C 
ATOM     40  O   UNK d   0      -0.815  14.549 -36.438  0.00  0.00    -0.650 OA
BRANCH  39  41
ATOM     41  O   UNK d   0      -2.250  13.675 -34.920  0.00  0.00    -0.776 OA
ATOM     42  H   UNK d   0      -2.361  14.609 -34.514  0.00  0.00     0.167 HD
ENDBRANCH  39  41
ENDBRANCH  38  39
ENDBRANCH  31  38
BRANCH  27  43
ATOM     43  C   UNK d   0      -4.748  12.491 -37.086  0.00  0.00     0.052 C 
BRANCH  43  44
ATOM     44  C   UNK d   0      -6.194  12.498 -36.711  0.00  0.00     0.115 C 
BRANCH  44  45
ATOM     45  C   UNK d   0      -6.334  13.443 -35.573  0.00  0.00     0.139 C 
ATOM     46  O   UNK d   0      -7.476  13.902 -35.321  0.00  0.00    -0.650 OA
BRANCH  45  47
ATOM     47  O   UNK d   0      -5.270  13.828 -34.787  0.00  0.00    -0.776 OA
ATOM     48  H   UNK d   0      -4.643  13.151 -34.322  0.00  0.00     0.167 HD
ENDBRANCH  45  47
ENDBRANCH  44  45
ENDBRANCH  43  44
ENDBRANCH  27  43
BRANCH  24  49
ATOM     49  C   UNK d   0      -9.034   9.204 -35.869  0.00  0.00     0.052 C 
BRANCH  49  50
ATOM     50  C   UNK d   0      -9.136  10.037 -37.121  0.00  0.00     0.115 C 
BRANCH  50  51
ATOM     51  C   UNK d   0     -10.102  11.127 -37.118  0.00  0.00     0.139 C 
ATOM     52  O   UNK d   0     -11.281  10.988 -37.519  0.00  0.00    -0.650 OA
BRANCH  51  53
ATOM     53  O   UNK d   0      -9.721  12.379 -36.658  0.00  0.00    -0.776 OA
ATOM     54  H   UNK d   0     -10.309  12.836 -35.982  0.00  0.00     0.167 HD
ENDBRANCH  51  53
ENDBRANCH  50  51
ENDBRANCH  49  50
ENDBRANCH  24  49
BRANCH  21  55
ATOM     55  C   UNK d   0      -9.011   6.143 -36.284  0.00  0.00     0.151 C 
BRANCH  55  56
ATOM     56  C   UNK d   0      -9.397   5.499 -35.019  0.00  0.00     0.143 C 
ATOM     57  O   UNK d   0     -10.368   4.721 -34.927  0.00  0.00    -0.650 OA
BRANCH  56  58
ATOM     58  O   UNK d   0      -8.635   5.781 -33.887  0.00  0.00    -0.776 OA
ATOM     59  H   UNK d   0      -9.177   5.878 -33.009  0.00  0.00     0.167 HD
ENDBRANCH  56  58
ENDBRANCH  55  56
ENDBRANCH  21  55
BRANCH  18  60
ATOM     60  C   UNK d   0      -5.030   2.879 -34.762  0.00  0.00     0.151 C 
BRANCH  60  61
ATOM     61  C   UNK d   0      -5.509   3.443 -33.490  0.00  0.00     0.143 C 
ATOM     62  O   UNK d   0      -6.608   3.952 -33.271  0.00  0.00    -0.650 OA
BRANCH  61  63
ATOM     63  O   UNK d   0      -4.586   3.382 -32.419  0.00  0.00    -0.776 OA
ATOM     64  H   UNK d   0      -3.832   2.717 -32.421  0.00  0.00     0.167 HD
ENDBRANCH  61  63
ENDBRANCH  60  61
ENDBRANCH  18  60
BRANCH  14  65
ATOM     65  C   UNK d   0      -1.999   2.732 -34.733  0.00  0.00     0.052 C 
BRANCH  65  66
ATOM     66  C   UNK d   0      -1.225   3.091 -33.514  0.00  0.00     0.115 C 
BRANCH  66  67
ATOM     67  C   UNK d   0       0.201   3.237 -33.594  0.00  0.00     0.139 C 
ATOM     68  O   UNK d   0       0.836   2.574 -34.495  0.00  0.00    -0.650 OA
BRANCH  67  69
ATOM     69  O   UNK d   0       1.024   4.030 -32.795  0.00  0.00    -0.776 OA
ATOM     70  H   UNK d   0       2.032   3.979 -33.002  0.00  0.00     0.167 HD
ENDBRANCH  67  69
ENDBRANCH  66  67
ENDBRANCH  65  66
ENDBRANCH  14  65
ENDBRANCH   6   7
ENDBRANCH   5   6
ENDBRANCH   2   5
TORSDOF 28
ENDMDL
MODEL 10
REMARK VINA RESULT:      -7.6      1.685      7.801
REMARK  28 active torsions:
REMARK  status: ('A' for Active; 'I' for Inactive)
REMARK    1  A    between atoms: C_2  and  O_3 
REMARK    2  A    between atoms: C_2  and  C_4 
REMARK    3  A    between atoms: C_4  and  C_5 
REMARK    4  A    between atoms: C_5  and  C_6 
REMARK    5  A    between atoms: C_7  and  C_8 
REMARK    6  A    between atoms: C_8  and  C_9 
REMARK    7  A    between atoms: C_9  and  O_11 
REMARK    8  A    between atoms: C_28  and  C_29 
REMARK    9  A    between atoms: C_29  and  C_30 
REMARK   10  A    between atoms: C_30  and  O_32 
REMARK   11  A    between atoms: C_33  and  C_34 
REMARK   12  A    between atoms: C_34  and  C_35 
REMARK   13  A    between atoms: C_35  and  C_36 
REMARK   14  A    between atoms: C_36  and  O_38 
REMARK   15  A    between atoms: C_39  and  C_40 
REMARK   16  A    between atoms: C_40  and  C_41 
REMARK   17  A    between atoms: C_41  and  C_42 
REMARK   18  A    between atoms: C_42  and  O_44 
REMARK   19  A    between atoms: C_45  and  C_46 
REMARK   20  A    between atoms: C_46  and  C_47 
REMARK   21  A    between atoms: C_47  and  O_49 
REMARK   22  A    between atoms: C_50  and  C_51 
REMARK   23  A    between atoms: C_51  and  C_52 
REMARK   24  A    between atoms: C_52  and  O_54 
REMARK   25  A    between atoms: C_55  and  C_56 
REMARK   26  A    between atoms: C_56  and  C_57 
REMARK   27  A    between atoms: C_57  and  C_58 
REMARK   28  A    between atoms: C_58  and  O_60 
ROOT
ATOM      1  O   UNK d   0      -2.402  -0.600 -41.263  0.00  0.00    -0.650 OA
ATOM      2  C   UNK d   0      -2.341  -0.279 -40.056  0.00  0.00     0.139 C 
ENDROOT
BRANCH   2   3
ATOM      3  O   UNK d   0      -2.004  -1.229 -39.122  0.00  0.00    -0.776 OA
ATOM      4  H   UNK d   0      -1.377  -1.008 -38.346  0.00  0.00     0.167 HD
ENDBRANCH   2   3
BRANCH   2   5
ATOM      5  C   UNK d   0      -2.632   1.122 -39.638  0.00  0.00     0.115 C 
BRANCH   5   6
ATOM      6  C   UNK d   0      -3.091   1.150 -38.205  0.00  0.00     0.052 C 
BRANCH   6   7
ATOM      7  C   UNK d   0      -2.609   2.375 -37.465  0.00  0.00    -0.020 A 
ATOM      8  C   UNK d   0      -1.605   2.459 -36.631  0.00  0.00    -0.011 A 
ATOM      9  C   UNK d   0      -1.530   3.833 -36.163  0.00  0.00     0.067 A 
ATOM     10  C   UNK d   0      -0.697   4.566 -35.302  0.00  0.00     0.062 C 
ATOM     11  N   UNK d   0      -2.530   4.515 -36.759  0.00  0.00    -0.248 NA
ATOM     12  C   UNK d   0      -0.611   5.958 -35.188  0.00  0.00     0.041 A 
ATOM     13  N   UNK d   0      -1.567   6.905 -35.160  0.00  0.00    -0.355 N 
ATOM     14  C   UNK d   0       0.660   6.560 -35.144  0.00  0.00    -0.022 A 
ATOM     15  C   UNK d   0      -0.936   8.093 -35.106  0.00  0.00     0.042 A 
ATOM     16  H   UNK d   0      -2.667   6.737 -35.158  0.00  0.00     0.166 HD
ATOM     17  C   UNK d   0      -1.455   9.402 -35.057  0.00  0.00     0.062 C 
ATOM     18  C   UNK d   0       0.461   7.917 -35.095  0.00  0.00    -0.013 A 
ATOM     19  C   UNK d   0      -2.471   9.955 -35.794  0.00  0.00     0.067 A 
ATOM     20  N   UNK d   0      -3.215   9.118 -36.522  0.00  0.00    -0.248 NA
ATOM     21  C   UNK d   0      -2.985  11.295 -36.026  0.00  0.00    -0.011 A 
ATOM     22  C   UNK d   0      -4.177   9.813 -37.214  0.00  0.00     0.066 A 
ATOM     23  C   UNK d   0      -5.048   9.058 -37.985  0.00  0.00     0.062 C 
ATOM     24  C   UNK d   0      -3.980  11.205 -36.860  0.00  0.00    -0.020 A 
ATOM     25  C   UNK d   0      -5.126   7.660 -38.076  0.00  0.00     0.041 A 
ATOM     26  N   UNK d   0      -4.176   6.719 -38.119  0.00  0.00    -0.355 N 
ATOM     27  C   UNK d   0      -6.402   7.056 -38.116  0.00  0.00    -0.022 A 
ATOM     28  C   UNK d   0      -4.803   5.533 -38.181  0.00  0.00     0.042 A 
ATOM     29  H   UNK d   0      -3.071   6.890 -38.132  0.00  0.00     0.166 HD
ATOM     30  C   UNK d   0      -4.298   4.225 -38.240  0.00  0.00     0.062 C 
ATOM     31  C   UNK d   0      -6.207   5.711 -38.182  0.00  0.00    -0.013 A 
ATOM     32  C   UNK d   0      -3.217   3.694 -37.555  0.00  0.00     0.066 A 
BRANCH   8  33
ATOM     33  C   UNK d   0      -0.701   1.369 -36.220  0.00  0.00     0.151 C 
BRANCH  33  34
ATOM     34  C   UNK d   0      -0.914   0.947 -34.824  0.00  0.00     0.143 C 
ATOM     35  O   UNK d   0       0.025   0.514 -34.140  0.00  0.00    -0.650 OA
BRANCH  34  36
ATOM     36  O   UNK d   0      -2.173   1.035 -34.276  0.00  0.00    -0.776 OA
ATOM     37  H   UNK d   0      -2.879   1.676 -34.661  0.00  0.00     0.167 HD
ENDBRANCH  34  36
ENDBRANCH  33  34
ENDBRANCH   8  33
BRANCH  31  38
ATOM     38  C   UNK d   0      -7.286   4.655 -38.230  0.00  0.00     0.151 C 
BRANCH  38  39
ATOM     39  C   UNK d   0      -7.579   4.093 -36.928  0.00  0.00     0.143 C 
ATOM     40  O   UNK d   0      -8.391   4.616 -36.145  0.00  0.00    -0.650 OA
BRANCH  39  41
ATOM     41  O   UNK d   0      -6.936   2.922 -36.526  0.00  0.00    -0.776 OA
ATOM     42  H   UNK d   0      -7.478   2.054 -36.586  0.00  0.00     0.167 HD
ENDBRANCH  39  41
ENDBRANCH  38  39
ENDBRANCH  31  38
BRANCH  27  43
ATOM     43  C   UNK d   0      -7.767   7.698 -38.096  0.00  0.00     0.052 C 
BRANCH  43  44
ATOM     44  C   UNK d   0      -8.323   7.861 -36.719  0.00  0.00     0.115 C 
BRANCH  44  45
ATOM     45  C   UNK d   0      -8.354   9.321 -36.444  0.00  0.00     0.139 C 
ATOM     46  O   UNK d   0      -8.575  10.100 -37.404  0.00  0.00    -0.650 OA
BRANCH  45  47
ATOM     47  O   UNK d   0      -8.156   9.849 -35.186  0.00  0.00    -0.776 OA
ATOM     48  H   UNK d   0      -8.308  10.847 -34.968  0.00  0.00     0.167 HD
ENDBRANCH  45  47
ENDBRANCH  44  45
ENDBRANCH  43  44
ENDBRANCH  27  43
BRANCH  24  49
ATOM     49  C   UNK d   0      -4.815  12.321 -37.339  0.00  0.00     0.052 C 
BRANCH  49  50
ATOM     50  C   UNK d   0      -5.764  12.768 -36.257  0.00  0.00     0.115 C 
BRANCH  50  51
ATOM     51  C   UNK d   0      -7.141  13.034 -36.649  0.00  0.00     0.139 C 
ATOM     52  O   UNK d   0      -7.442  13.567 -37.743  0.00  0.00    -0.650 OA
BRANCH  51  53
ATOM     53  O   UNK d   0      -8.177  12.696 -35.792  0.00  0.00    -0.776 OA
ATOM     54  H   UNK d   0      -7.965  12.571 -34.817  0.00  0.00     0.167 HD
ENDBRANCH  51  53
ENDBRANCH  50  51
ENDBRANCH  49  50
ENDBRANCH  24  49
BRANCH  21  55
ATOM     55  C   UNK d   0      -2.430  12.524 -35.385  0.00  0.00     0.151 C 
BRANCH  55  56
ATOM     56  C   UNK d   0      -1.480  13.223 -36.264  0.00  0.00     0.143 C 
ATOM     57  O   UNK d   0      -0.887  12.657 -37.203  0.00  0.00    -0.650 OA
BRANCH  56  58
ATOM     58  O   UNK d   0      -1.247  14.576 -36.022  0.00  0.00    -0.776 OA
ATOM     59  H   UNK d   0      -0.933  15.119 -36.847  0.00  0.00     0.167 HD
ENDBRANCH  56  58
ENDBRANCH  55  56
ENDBRANCH  21  55
BRANCH  18  60
ATOM     60  C   UNK d   0       1.560   8.950 -35.045  0.00  0.00     0.151 C 
BRANCH  60  61
ATOM     61  C   UNK d   0       1.900   9.109 -33.623  0.00  0.00     0.143 C 
ATOM     62  O   UNK d   0       2.762   8.495 -32.993  0.00  0.00    -0.650 OA
BRANCH  61  63
ATOM     63  O   UNK d   0       1.141  10.079 -32.926  0.00  0.00    -0.776 OA
ATOM     64  H   UNK d   0       1.255  11.060 -33.114  0.00  0.00     0.167 HD
ENDBRANCH  61  63
ENDBRANCH  60  61
ENDBRANCH  18  60
BRANCH  14  65
ATOM     65  C   UNK d   0       2.030   5.952 -35.046  0.00  0.00     0.052 C 
BRANCH  65  66
ATOM     66  C   UNK d   0       2.540   5.453 -36.351  0.00  0.00     0.115 C 
BRANCH  66  67
ATOM     67  C   UNK d   0       2.395   6.262 -37.528  0.00  0.00     0.139 C 
ATOM     68  O   UNK d   0       2.928   7.432 -37.538  0.00  0.00    -0.650 OA
BRANCH  67  69
ATOM     69  O   UNK d   0       1.726   5.939 -38.708  0.00  0.00    -0.776 OA
ATOM     70  H   UNK d   0       2.216   6.182 -39.581  0.00  0.00     0.167 HD
ENDBRANCH  67  69
ENDBRANCH  66  67
ENDBRANCH  65  66
ENDBRANCH  14  65
ENDBRANCH   6   7
ENDBRANCH   5   6
ENDBRANCH   2   5
TORSDOF 28
ENDMDL
MODEL 11
REMARK VINA RESULT:      -7.6      1.683      8.100
REMARK  28 active torsions:
REMARK  status: ('A' for Active; 'I' for Inactive)
REMARK    1  A    between atoms: C_2  and  O_3 
REMARK    2  A    between atoms: C_2  and  C_4 
REMARK    3  A    between atoms: C_4  and  C_5 
REMARK    4  A    between atoms: C_5  and  C_6 
REMARK    5  A    between atoms: C_7  and  C_8 
REMARK    6  A    between atoms: C_8  and  C_9 
REMARK    7  A    between atoms: C_9  and  O_11 
REMARK    8  A    between atoms: C_28  and  C_29 
REMARK    9  A    between atoms: C_29  and  C_30 
REMARK   10  A    between atoms: C_30  and  O_32 
REMARK   11  A    between atoms: C_33  and  C_34 
REMARK   12  A    between atoms: C_34  and  C_35 
REMARK   13  A    between atoms: C_35  and  C_36 
REMARK   14  A    between atoms: C_36  and  O_38 
REMARK   15  A    between atoms: C_39  and  C_40 
REMARK   16  A    between atoms: C_40  and  C_41 
REMARK   17  A    between atoms: C_41  and  C_42 
REMARK   18  A    between atoms: C_42  and  O_44 
REMARK   19  A    between atoms: C_45  and  C_46 
REMARK   20  A    between atoms: C_46  and  C_47 
REMARK   21  A    between atoms: C_47  and  O_49 
REMARK   22  A    between atoms: C_50  and  C_51 
REMARK   23  A    between atoms: C_51  and  C_52 
REMARK   24  A    between atoms: C_52  and  O_54 
REMARK   25  A    between atoms: C_55  and  C_56 
REMARK   26  A    between atoms: C_56  and  C_57 
REMARK   27  A    between atoms: C_57  and  C_58 
REMARK   28  A    between atoms: C_58  and  O_60 
ROOT
ATOM      1  O   UNK d   0      -2.794  11.899 -38.755  0.00  0.00    -0.650 OA
ATOM      2  C   UNK d   0      -1.926  12.717 -38.377  0.00  0.00     0.139 C 
ENDROOT
BRANCH   2   3
ATOM      3  O   UNK d   0      -1.684  13.840 -39.131  0.00  0.00    -0.776 OA
ATOM      4  H   UNK d   0      -0.879  13.890 -39.759  0.00  0.00     0.167 HD
ENDBRANCH   2   3
BRANCH   2   5
ATOM      5  C   UNK d   0      -1.164  12.472 -37.119  0.00  0.00     0.115 C 
BRANCH   5   6
ATOM      6  C   UNK d   0      -2.075  12.597 -35.929  0.00  0.00     0.052 C 
BRANCH   6   7
ATOM      7  C   UNK d   0      -3.006  11.417 -35.782  0.00  0.00    -0.020 A 
ATOM      8  C   UNK d   0      -4.309  11.437 -35.673  0.00  0.00    -0.011 A 
ATOM      9  C   UNK d   0      -4.767  10.063 -35.546  0.00  0.00     0.067 A 
ATOM     10  C   UNK d   0      -6.006   9.416 -35.421  0.00  0.00     0.062 C 
ATOM     11  N   UNK d   0      -3.673   9.272 -35.581  0.00  0.00    -0.248 NA
ATOM     12  C   UNK d   0      -6.270   8.053 -35.591  0.00  0.00     0.041 A 
ATOM     13  N   UNK d   0      -5.596   6.961 -35.182  0.00  0.00    -0.355 N 
ATOM     14  C   UNK d   0      -7.387   7.666 -36.355  0.00  0.00    -0.022 A 
ATOM     15  C   UNK d   0      -6.252   5.892 -35.674  0.00  0.00     0.042 A 
ATOM     16  H   UNK d   0      -4.686   6.945 -34.543  0.00  0.00     0.166 HD
ATOM     17  C   UNK d   0      -5.978   4.516 -35.548  0.00  0.00     0.062 C 
ATOM     18  C   UNK d   0      -7.379   6.295 -36.415  0.00  0.00    -0.013 A 
ATOM     19  C   UNK d   0      -4.780   3.860 -35.670  0.00  0.00     0.067 A 
ATOM     20  N   UNK d   0      -3.679   4.615 -35.720  0.00  0.00    -0.248 NA
ATOM     21  C   UNK d   0      -4.354   2.475 -35.780  0.00  0.00    -0.011 A 
ATOM     22  C   UNK d   0      -2.565   3.824 -35.857  0.00  0.00     0.066 A 
ATOM     23  C   UNK d   0      -1.343   4.480 -35.885  0.00  0.00     0.062 C 
ATOM     24  C   UNK d   0      -3.057   2.461 -35.894  0.00  0.00    -0.020 A 
ATOM     25  C   UNK d   0      -1.098   5.850 -35.699  0.00  0.00     0.041 A 
ATOM     26  N   UNK d   0      -1.759   6.935 -36.118  0.00  0.00    -0.355 N 
ATOM     27  C   UNK d   0       0.020   6.236 -34.928  0.00  0.00    -0.022 A 
ATOM     28  C   UNK d   0      -1.103   8.002 -35.636  0.00  0.00     0.042 A 
ATOM     29  H   UNK d   0      -2.667   6.949 -36.769  0.00  0.00     0.166 HD
ATOM     30  C   UNK d   0      -1.358   9.377 -35.761  0.00  0.00     0.062 C 
ATOM     31  C   UNK d   0       0.024   7.596 -34.883  0.00  0.00    -0.013 A 
ATOM     32  C   UNK d   0      -2.582  10.026 -35.722  0.00  0.00     0.066 A 
BRANCH   8  33
ATOM     33  C   UNK d   0      -5.179  12.628 -35.672  0.00  0.00     0.151 C 
BRANCH  33  34
ATOM     34  C   UNK d   0      -6.050  12.700 -36.859  0.00  0.00     0.143 C 
ATOM     35  O   UNK d   0      -7.086  13.380 -36.849  0.00  0.00    -0.650 OA
BRANCH  34  36
ATOM     36  O   UNK d   0      -5.706  12.000 -37.992  0.00  0.00    -0.776 OA
ATOM     37  H   UNK d   0      -5.831  12.406 -38.930  0.00  0.00     0.167 HD
ENDBRANCH  34  36
ENDBRANCH  33  34
ENDBRANCH   8  33
BRANCH  31  38
ATOM     38  C   UNK d   0       1.029   8.461 -34.157  0.00  0.00     0.151 C 
BRANCH  38  39
ATOM     39  C   UNK d   0       2.257   8.641 -34.902  0.00  0.00     0.143 C 
ATOM     40  O   UNK d   0       3.343   8.880 -34.346  0.00  0.00    -0.650 OA
BRANCH  39  41
ATOM     41  O   UNK d   0       2.236   8.544 -36.293  0.00  0.00    -0.776 OA
ATOM     42  H   UNK d   0       2.831   9.199 -36.810  0.00  0.00     0.167 HD
ENDBRANCH  39  41
ENDBRANCH  38  39
ENDBRANCH  31  38
BRANCH  27  43
ATOM     43  C   UNK d   0       1.061   5.379 -34.252  0.00  0.00     0.052 C 
BRANCH  43  44
ATOM     44  C   UNK d   0       2.164   4.956 -35.167  0.00  0.00     0.115 C 
BRANCH  44  45
ATOM     45  C   UNK d   0       3.129   4.185 -34.341  0.00  0.00     0.139 C 
ATOM     46  O   UNK d   0       4.297   4.039 -34.777  0.00  0.00    -0.650 OA
BRANCH  45  47
ATOM     47  O   UNK d   0       2.796   3.633 -33.123  0.00  0.00    -0.776 OA
ATOM     48  H   UNK d   0       2.747   2.614 -32.964  0.00  0.00     0.167 HD
ENDBRANCH  45  47
ENDBRANCH  44  45
ENDBRANCH  43  44
ENDBRANCH  27  43
BRANCH  24  49
ATOM     49  C   UNK d   0      -2.206   1.262 -35.993  0.00  0.00     0.052 C 
BRANCH  49  50
ATOM     50  C   UNK d   0      -1.635   0.911 -34.643  0.00  0.00     0.115 C 
BRANCH  50  51
ATOM     51  C   UNK d   0      -0.184   0.901 -34.517  0.00  0.00     0.139 C 
ATOM     52  O   UNK d   0       0.526  -0.036 -34.954  0.00  0.00    -0.650 OA
BRANCH  51  53
ATOM     53  O   UNK d   0       0.458   1.958 -33.891  0.00  0.00    -0.776 OA
ATOM     54  H   UNK d   0       0.654   2.782 -34.431  0.00  0.00     0.167 HD
ENDBRANCH  51  53
ENDBRANCH  50  51
ENDBRANCH  49  50
ENDBRANCH  24  49
BRANCH  21  55
ATOM     55  C   UNK d   0      -5.287   1.309 -35.756  0.00  0.00     0.151 C 
BRANCH  55  56
ATOM     56  C   UNK d   0      -5.996   1.145 -37.034  0.00  0.00     0.143 C 
ATOM     57  O   UNK d   0      -5.423   0.793 -38.084  0.00  0.00    -0.650 OA
BRANCH  56  58
ATOM     58  O   UNK d   0      -7.367   1.397 -37.053  0.00  0.00    -0.776 OA
ATOM     59  H   UNK d   0      -7.708   2.007 -36.289  0.00  0.00     0.167 HD
ENDBRANCH  56  58
ENDBRANCH  55  56
ENDBRANCH  21  55
BRANCH  18  60
ATOM     60  C   UNK d   0      -8.399   5.456 -37.145  0.00  0.00     0.151 C 
BRANCH  60  61
ATOM     61  C   UNK d   0      -7.732   4.986 -38.370  0.00  0.00     0.143 C 
ATOM     62  O   UNK d   0      -7.597   3.820 -38.740  0.00  0.00    -0.650 OA
BRANCH  61  63
ATOM     63  O   UNK d   0      -7.198   6.005 -39.194  0.00  0.00    -0.776 OA
ATOM     64  H   UNK d   0      -7.323   6.976 -38.966  0.00  0.00     0.167 HD
ENDBRANCH  61  63
ENDBRANCH  60  61
ENDBRANCH  18  60
BRANCH  14  65
ATOM     65  C   UNK d   0      -8.502   8.482 -36.943  0.00  0.00     0.052 C 
BRANCH  65  66
ATOM     66  C   UNK d   0      -9.676   8.602 -36.037  0.00  0.00     0.115 C 
BRANCH  66  67
ATOM     67  C   UNK d   0      -9.513   9.184 -34.734  0.00  0.00     0.139 C 
ATOM     68  O   UNK d   0      -9.668  10.454 -34.606  0.00  0.00    -0.650 OA
BRANCH  67  69
ATOM     69  O   UNK d   0      -9.196   8.533 -33.543  0.00  0.00    -0.776 OA
ATOM     70  H   UNK d   0      -8.430   8.950 -32.994  0.00  0.00     0.167 HD
ENDBRANCH  67  69
ENDBRANCH  66  67
ENDBRANCH  65  66
ENDBRANCH  14  65
ENDBRANCH   6   7
ENDBRANCH   5   6
ENDBRANCH   2   5
TORSDOF 28
ENDMDL
MODEL 12
REMARK VINA RESULT:      -7.5      1.880      7.510
REMARK  28 active torsions:
REMARK  status: ('A' for Active; 'I' for Inactive)
REMARK    1  A    between atoms: C_2  and  O_3 
REMARK    2  A    between atoms: C_2  and  C_4 
REMARK    3  A    between atoms: C_4  and  C_5 
REMARK    4  A    between atoms: C_5  and  C_6 
REMARK    5  A    between atoms: C_7  and  C_8 
REMARK    6  A    between atoms: C_8  and  C_9 
REMARK    7  A    between atoms: C_9  and  O_11 
REMARK    8  A    between atoms: C_28  and  C_29 
REMARK    9  A    between atoms: C_29  and  C_30 
REMARK   10  A    between atoms: C_30  and  O_32 
REMARK   11  A    between atoms: C_33  and  C_34 
REMARK   12  A    between atoms: C_34  and  C_35 
REMARK   13  A    between atoms: C_35  and  C_36 
REMARK   14  A    between atoms: C_36  and  O_38 
REMARK   15  A    between atoms: C_39  and  C_40 
REMARK   16  A    between atoms: C_40  and  C_41 
REMARK   17  A    between atoms: C_41  and  C_42 
REMARK   18  A    between atoms: C_42  and  O_44 
REMARK   19  A    between atoms: C_45  and  C_46 
REMARK   20  A    between atoms: C_46  and  C_47 
REMARK   21  A    between atoms: C_47  and  O_49 
REMARK   22  A    between atoms: C_50  and  C_51 
REMARK   23  A    between atoms: C_51  and  C_52 
REMARK   24  A    between atoms: C_52  and  O_54 
REMARK   25  A    between atoms: C_55  and  C_56 
REMARK   26  A    between atoms: C_56  and  C_57 
REMARK   27  A    between atoms: C_57  and  C_58 
REMARK   28  A    between atoms: C_58  and  O_60 
ROOT
ATOM      1  O   UNK d   0       3.730   5.184 -35.500  0.00  0.00    -0.650 OA
ATOM      2  C   UNK d   0       2.940   4.779 -34.618  0.00  0.00     0.139 C 
ENDROOT
BRANCH   2   3
ATOM      3  O   UNK d   0       3.438   4.124 -33.517  0.00  0.00    -0.776 OA
ATOM      4  H   UNK d   0       2.816   3.779 -32.783  0.00  0.00     0.167 HD
ENDBRANCH   2   3
BRANCH   2   5
ATOM      5  C   UNK d   0       1.475   5.007 -34.765  0.00  0.00     0.115 C 
BRANCH   5   6
ATOM      6  C   UNK d   0       1.195   5.782 -36.023  0.00  0.00     0.052 C 
BRANCH   6   7
ATOM      7  C   UNK d   0       0.039   6.742 -35.870  0.00  0.00    -0.020 A 
ATOM      8  C   UNK d   0       0.091   8.009 -35.548  0.00  0.00    -0.011 A 
ATOM      9  C   UNK d   0      -1.271   8.516 -35.514  0.00  0.00     0.067 A 
ATOM     10  C   UNK d   0      -1.885   9.754 -35.267  0.00  0.00     0.062 C 
ATOM     11  N   UNK d   0      -2.089   7.488 -35.823  0.00  0.00    -0.248 NA
ATOM     12  C   UNK d   0      -3.205  10.117 -35.555  0.00  0.00     0.041 A 
ATOM     13  N   UNK d   0      -4.363   9.449 -35.397  0.00  0.00    -0.355 N 
ATOM     14  C   UNK d   0      -3.450  11.360 -36.167  0.00  0.00    -0.022 A 
ATOM     15  C   UNK d   0      -5.336  10.232 -35.900  0.00  0.00     0.042 A 
ATOM     16  H   UNK d   0      -4.492   8.452 -34.921  0.00  0.00     0.166 HD
ATOM     17  C   UNK d   0      -6.726  10.019 -35.987  0.00  0.00     0.062 C 
ATOM     18  C   UNK d   0      -4.802  11.438 -36.393  0.00  0.00    -0.013 A 
ATOM     19  C   UNK d   0      -7.403   8.893 -36.382  0.00  0.00     0.067 A 
ATOM     20  N   UNK d   0      -6.687   7.774 -36.520  0.00  0.00    -0.248 NA
ATOM     21  C   UNK d   0      -8.777   8.568 -36.727  0.00  0.00    -0.011 A 
ATOM     22  C   UNK d   0      -7.493   6.741 -36.932  0.00  0.00     0.066 A 
ATOM     23  C   UNK d   0      -6.882   5.505 -37.080  0.00  0.00     0.062 C 
ATOM     24  C   UNK d   0      -8.822   7.308 -37.052  0.00  0.00    -0.020 A 
ATOM     25  C   UNK d   0      -5.557   5.157 -36.773  0.00  0.00     0.041 A 
ATOM     26  N   UNK d   0      -4.404   5.815 -36.943  0.00  0.00    -0.355 N 
ATOM     27  C   UNK d   0      -5.312   3.912 -36.154  0.00  0.00    -0.022 A 
ATOM     28  C   UNK d   0      -3.432   5.033 -36.450  0.00  0.00     0.042 A 
ATOM     29  H   UNK d   0      -4.275   6.812 -37.431  0.00  0.00     0.166 HD
ATOM     30  C   UNK d   0      -2.044   5.228 -36.365  0.00  0.00     0.062 C 
ATOM     31  C   UNK d   0      -3.970   3.825 -35.946  0.00  0.00    -0.013 A 
ATOM     32  C   UNK d   0      -1.362   6.392 -36.049  0.00  0.00     0.066 A 
BRANCH   8  33
ATOM     33  C   UNK d   0       1.302   8.800 -35.261  0.00  0.00     0.151 C 
BRANCH  33  34
ATOM     34  C   UNK d   0       1.884   8.493 -33.942  0.00  0.00     0.143 C 
ATOM     35  O   UNK d   0       3.112   8.479 -33.776  0.00  0.00    -0.650 OA
BRANCH  34  36
ATOM     36  O   UNK d   0       1.050   8.218 -32.883  0.00  0.00    -0.776 OA
ATOM     37  H   UNK d   0       0.028   8.201 -32.998  0.00  0.00     0.167 HD
ENDBRANCH  34  36
ENDBRANCH  33  34
ENDBRANCH   8  33
BRANCH  31  38
ATOM     38  C   UNK d   0      -3.241   2.672 -35.296  0.00  0.00     0.151 C 
BRANCH  38  39
ATOM     39  C   UNK d   0      -3.259   2.741 -33.850  0.00  0.00     0.143 C 
ATOM     40  O   UNK d   0      -4.004   2.025 -33.159  0.00  0.00    -0.650 OA
BRANCH  39  41
ATOM     41  O   UNK d   0      -2.414   3.636 -33.195  0.00  0.00    -0.776 OA
ATOM     42  H   UNK d   0      -1.783   3.244 -32.489  0.00  0.00     0.167 HD
ENDBRANCH  39  41
ENDBRANCH  38  39
ENDBRANCH  31  38
BRANCH  27  43
ATOM     43  C   UNK d   0      -6.285   2.827 -35.766  0.00  0.00     0.052 C 
BRANCH  43  44
ATOM     44  C   UNK d   0      -6.287   1.669 -36.710  0.00  0.00     0.115 C 
BRANCH  44  45
ATOM     45  C   UNK d   0      -7.258   2.000 -37.786  0.00  0.00     0.139 C 
ATOM     46  O   UNK d   0      -8.475   2.064 -37.485  0.00  0.00    -0.650 OA
BRANCH  45  47
ATOM     47  O   UNK d   0      -6.876   2.243 -39.087  0.00  0.00    -0.776 OA
ATOM     48  H   UNK d   0      -7.555   2.415 -39.847  0.00  0.00     0.167 HD
ENDBRANCH  45  47
ENDBRANCH  44  45
ENDBRANCH  43  44
ENDBRANCH  27  43
BRANCH  24  49
ATOM     49  C   UNK d   0     -10.027   6.552 -37.433  0.00  0.00     0.052 C 
BRANCH  49  50
ATOM     50  C   UNK d   0      -9.982   6.195 -38.896  0.00  0.00     0.115 C 
BRANCH  50  51
ATOM     51  C   UNK d   0      -9.706   4.805 -39.233  0.00  0.00     0.139 C 
ATOM     52  O   UNK d   0      -8.703   4.456 -39.900  0.00  0.00    -0.650 OA
BRANCH  51  53
ATOM     53  O   UNK d   0     -10.577   3.811 -38.813  0.00  0.00    -0.776 OA
ATOM     54  H   UNK d   0     -10.344   2.856 -39.021  0.00  0.00     0.167 HD
ENDBRANCH  51  53
ENDBRANCH  50  51
ENDBRANCH  49  50
ENDBRANCH  24  49
BRANCH  21  55
ATOM     55  C   UNK d   0      -9.902   9.548 -36.692  0.00  0.00     0.151 C 
BRANCH  55  56
ATOM     56  C   UNK d   0     -10.126  10.081 -35.339  0.00  0.00     0.143 C 
ATOM     57  O   UNK d   0      -9.836  11.250 -35.018  0.00  0.00    -0.650 OA
BRANCH  56  58
ATOM     58  O   UNK d   0     -10.689   9.228 -34.391  0.00  0.00    -0.776 OA
ATOM     59  H   UNK d   0     -10.011   8.794 -33.739  0.00  0.00     0.167 HD
ENDBRANCH  56  58
ENDBRANCH  55  56
ENDBRANCH  21  55
BRANCH  18  60
ATOM     60  C   UNK d   0      -5.503  12.605 -37.042  0.00  0.00     0.151 C 
BRANCH  60  61
ATOM     61  C   UNK d   0      -6.300  13.240 -35.981  0.00  0.00     0.143 C 
ATOM     62  O   UNK d   0      -5.876  13.796 -34.967  0.00  0.00    -0.650 OA
BRANCH  61  63
ATOM     63  O   UNK d   0      -7.702  13.192 -36.169  0.00  0.00    -0.776 OA
ATOM     64  H   UNK d   0      -8.270  12.528 -35.672  0.00  0.00     0.167 HD
ENDBRANCH  61  63
ENDBRANCH  60  61
ENDBRANCH  18  60
BRANCH  14  65
ATOM     65  C   UNK d   0      -2.526  12.508 -36.462  0.00  0.00     0.052 C 
BRANCH  65  66
ATOM     66  C   UNK d   0      -2.558  13.564 -35.415  0.00  0.00     0.115 C 
BRANCH  66  67
ATOM     67  C   UNK d   0      -1.492  14.522 -35.338  0.00  0.00     0.139 C 
ATOM     68  O   UNK d   0      -0.865  14.830 -36.418  0.00  0.00    -0.650 OA
BRANCH  67  69
ATOM     69  O   UNK d   0      -1.025  15.190 -34.207  0.00  0.00    -0.776 OA
ATOM     70  H   UNK d   0      -0.995  14.635 -33.339  0.00  0.00     0.167 HD
ENDBRANCH  67  69
ENDBRANCH  66  67
ENDBRANCH  65  66
ENDBRANCH  14  65
ENDBRANCH   6   7
ENDBRANCH   5   6
ENDBRANCH   2   5
TORSDOF 28
ENDMDL
MODEL 13
REMARK VINA RESULT:      -7.5      2.715      6.906
REMARK  28 active torsions:
REMARK  status: ('A' for Active; 'I' for Inactive)
REMARK    1  A    between atoms: C_2  and  O_3 
REMARK    2  A    between atoms: C_2  and  C_4 
REMARK    3  A    between atoms: C_4  and  C_5 
REMARK    4  A    between atoms: C_5  and  C_6 
REMARK    5  A    between atoms: C_7  and  C_8 
REMARK    6  A    between atoms: C_8  and  C_9 
REMARK    7  A    between atoms: C_9  and  O_11 
REMARK    8  A    between atoms: C_28  and  C_29 
REMARK    9  A    between atoms: C_29  and  C_30 
REMARK   10  A    between atoms: C_30  and  O_32 
REMARK   11  A    between atoms: C_33  and  C_34 
REMARK   12  A    between atoms: C_34  and  C_35 
REMARK   13  A    between atoms: C_35  and  C_36 
REMARK   14  A    between atoms: C_36  and  O_38 
REMARK   15  A    between atoms: C_39  and  C_40 
REMARK   16  A    between atoms: C_40  and  C_41 
REMARK   17  A    between atoms: C_41  and  C_42 
REMARK   18  A    between atoms: C_42  and  O_44 
REMARK   19  A    between atoms: C_45  and  C_46 
REMARK   20  A    between atoms: C_46  and  C_47 
REMARK   21  A    between atoms: C_47  and  O_49 
REMARK   22  A    between atoms: C_50  and  C_51 
REMARK   23  A    between atoms: C_51  and  C_52 
REMARK   24  A    between atoms: C_52  and  O_54 
REMARK   25  A    between atoms: C_55  and  C_56 
REMARK   26  A    between atoms: C_56  and  C_57 
REMARK   27  A    between atoms: C_57  and  C_58 
REMARK   28  A    between atoms: C_58  and  O_60 
ROOT
ATOM      1  O   UNK d   0      -2.761  11.972 -38.465  0.00  0.00    -0.650 OA
ATOM      2  C   UNK d   0      -3.077  11.510 -37.346  0.00  0.00     0.139 C 
ENDROOT
BRANCH   2   3
ATOM      3  O   UNK d   0      -4.374  11.118 -37.121  0.00  0.00    -0.776 OA
ATOM      4  H   UNK d   0      -5.140  11.796 -37.133  0.00  0.00     0.167 HD
ENDBRANCH   2   3
BRANCH   2   5
ATOM      5  C   UNK d   0      -2.052  11.388 -36.270  0.00  0.00     0.115 C 
BRANCH   5   6
ATOM      6  C   UNK d   0      -2.470  10.341 -35.274  0.00  0.00     0.052 C 
BRANCH   6   7
ATOM      7  C   UNK d   0      -1.859   8.990 -35.560  0.00  0.00    -0.020 A 
ATOM      8  C   UNK d   0      -0.625   8.611 -35.347  0.00  0.00    -0.011 A 
ATOM      9  C   UNK d   0      -0.501   7.231 -35.786  0.00  0.00     0.067 A 
ATOM     10  C   UNK d   0       0.516   6.264 -35.813  0.00  0.00     0.062 C 
ATOM     11  N   UNK d   0      -1.707   6.851 -36.258  0.00  0.00    -0.248 NA
ATOM     12  C   UNK d   0       0.372   4.888 -36.020  0.00  0.00     0.041 A 
ATOM     13  N   UNK d   0      -0.382   4.198 -36.896  0.00  0.00    -0.355 N 
ATOM     14  C   UNK d   0       1.059   3.997 -35.175  0.00  0.00    -0.022 A 
ATOM     15  C   UNK d   0      -0.199   2.892 -36.624  0.00  0.00     0.042 A 
ATOM     16  H   UNK d   0      -1.017   4.625 -37.704  0.00  0.00     0.166 HD
ATOM     17  C   UNK d   0      -0.745   1.746 -37.235  0.00  0.00     0.062 C 
ATOM     18  C   UNK d   0       0.698   2.727 -35.551  0.00  0.00    -0.013 A 
ATOM     19  C   UNK d   0      -2.042   1.504 -37.610  0.00  0.00     0.067 A 
ATOM     20  N   UNK d   0      -2.882   2.542 -37.586  0.00  0.00    -0.248 NA
ATOM     21  C   UNK d   0      -2.806   0.345 -38.042  0.00  0.00    -0.011 A 
ATOM     22  C   UNK d   0      -4.140   2.146 -37.970  0.00  0.00     0.066 A 
ATOM     23  C   UNK d   0      -5.108   3.137 -38.026  0.00  0.00     0.062 C 
ATOM     24  C   UNK d   0      -4.033   0.726 -38.247  0.00  0.00    -0.020 A 
ATOM     25  C   UNK d   0      -4.940   4.516 -37.827  0.00  0.00     0.041 A 
ATOM     26  N   UNK d   0      -4.202   5.202 -36.946  0.00  0.00    -0.355 N 
ATOM     27  C   UNK d   0      -5.626   5.410 -38.678  0.00  0.00    -0.022 A 
ATOM     28  C   UNK d   0      -4.390   6.505 -37.210  0.00  0.00     0.042 A 
ATOM     29  H   UNK d   0      -3.573   4.772 -36.128  0.00  0.00     0.166 HD
ATOM     30  C   UNK d   0      -3.860   7.655 -36.604  0.00  0.00     0.062 C 
ATOM     31  C   UNK d   0      -5.283   6.670 -38.295  0.00  0.00    -0.013 A 
ATOM     32  C   UNK d   0      -2.568   7.864 -36.149  0.00  0.00     0.066 A 
BRANCH   8  33
ATOM     33  C   UNK d   0       0.463   9.423 -34.771  0.00  0.00     0.151 C 
BRANCH  33  34
ATOM     34  C   UNK d   0       0.727   9.101 -33.357  0.00  0.00     0.143 C 
ATOM     35  O   UNK d   0       0.160   9.722 -32.446  0.00  0.00    -0.650 OA
BRANCH  34  36
ATOM     36  O   UNK d   0       1.618   8.100 -33.047  0.00  0.00    -0.776 OA
ATOM     37  H   UNK d   0       2.632   8.272 -33.033  0.00  0.00     0.167 HD
ENDBRANCH  34  36
ENDBRANCH  33  34
ENDBRANCH   8  33
BRANCH  31  38
ATOM     38  C   UNK d   0      -5.762   7.956 -38.928  0.00  0.00     0.151 C 
BRANCH  38  39
ATOM     39  C   UNK d   0      -4.925   8.387 -40.027  0.00  0.00     0.143 C 
ATOM     40  O   UNK d   0      -4.814   7.730 -41.077  0.00  0.00    -0.650 OA
BRANCH  39  41
ATOM     41  O   UNK d   0      -4.211   9.580 -39.919  0.00  0.00    -0.776 OA
ATOM     42  H   UNK d   0      -4.309  10.248 -40.690  0.00  0.00     0.167 HD
ENDBRANCH  39  41
ENDBRANCH  38  39
ENDBRANCH  31  38
BRANCH  27  43
ATOM     43  C   UNK d   0      -6.574   5.115 -39.813  0.00  0.00     0.052 C 
BRANCH  43  44
ATOM     44  C   UNK d   0      -7.958   4.784 -39.357  0.00  0.00     0.115 C 
BRANCH  44  45
ATOM     45  C   UNK d   0      -8.426   3.656 -40.203  0.00  0.00     0.139 C 
ATOM     46  O   UNK d   0      -9.606   3.689 -40.633  0.00  0.00    -0.650 OA
BRANCH  45  47
ATOM     47  O   UNK d   0      -7.621   2.589 -40.537  0.00  0.00    -0.776 OA
ATOM     48  H   UNK d   0      -7.111   2.030 -39.834  0.00  0.00     0.167 HD
ENDBRANCH  45  47
ENDBRANCH  44  45
ENDBRANCH  43  44
ENDBRANCH  27  43
BRANCH  24  49
ATOM     49  C   UNK d   0      -5.137  -0.121 -38.731  0.00  0.00     0.052 C 
BRANCH  49  50
ATOM     50  C   UNK d   0      -6.039  -0.510 -37.588  0.00  0.00     0.115 C 
BRANCH  50  51
ATOM     51  C   UNK d   0      -6.175  -1.932 -37.303  0.00  0.00     0.139 C 
ATOM     52  O   UNK d   0      -7.125  -2.622 -37.741  0.00  0.00    -0.650 OA
BRANCH  51  53
ATOM     53  O   UNK d   0      -5.227  -2.568 -36.515  0.00  0.00    -0.776 OA
ATOM     54  H   UNK d   0      -4.646  -3.268 -36.942  0.00  0.00     0.167 HD
ENDBRANCH  51  53
ENDBRANCH  50  51
ENDBRANCH  49  50
ENDBRANCH  24  49
BRANCH  21  55
ATOM     55  C   UNK d   0      -2.227  -1.021 -38.209  0.00  0.00     0.151 C 
BRANCH  55  56
ATOM     56  C   UNK d   0      -1.782  -1.592 -36.928  0.00  0.00     0.143 C 
ATOM     57  O   UNK d   0      -2.564  -1.826 -35.986  0.00  0.00    -0.650 OA
BRANCH  56  58
ATOM     58  O   UNK d   0      -0.426  -1.876 -36.781  0.00  0.00    -0.776 OA
ATOM     59  H   UNK d   0      -0.113  -2.017 -35.803  0.00  0.00     0.167 HD
ENDBRANCH  56  58
ENDBRANCH  55  56
ENDBRANCH  21  55
BRANCH  18  60
ATOM     60  C   UNK d   0       1.196   1.459 -34.901  0.00  0.00     0.151 C 
BRANCH  60  61
ATOM     61  C   UNK d   0       0.029   0.861 -34.236  0.00  0.00     0.143 C 
ATOM     62  O   UNK d   0      -0.970   1.449 -33.819  0.00  0.00    -0.650 OA
BRANCH  61  63
ATOM     63  O   UNK d   0       0.084  -0.543 -34.069  0.00  0.00    -0.776 OA
ATOM     64  H   UNK d   0       0.126  -0.956 -33.154  0.00  0.00     0.167 HD
ENDBRANCH  61  63
ENDBRANCH  60  61
ENDBRANCH  18  60
BRANCH  14  65
ATOM     65  C   UNK d   0       2.094   4.250 -34.116  0.00  0.00     0.052 C 
BRANCH  65  66
ATOM     66  C   UNK d   0       3.478   4.311 -34.658  0.00  0.00     0.115 C 
BRANCH  66  67
ATOM     67  C   UNK d   0       4.164   5.570 -34.718  0.00  0.00     0.139 C 
ATOM     68  O   UNK d   0       3.876   6.468 -33.843  0.00  0.00    -0.650 OA
BRANCH  67  69
ATOM     69  O   UNK d   0       5.139   5.968 -35.631  0.00  0.00    -0.776 OA
ATOM     70  H   UNK d   0       6.043   6.252 -35.227  0.00  0.00     0.167 HD
ENDBRANCH  67  69
ENDBRANCH  66  67
ENDBRANCH  65  66
ENDBRANCH  14  65
ENDBRANCH   6   7
ENDBRANCH   5   6
ENDBRANCH   2   5
TORSDOF 28
ENDMDL
MODEL 14
REMARK VINA RESULT:      -7.5      3.640     10.208
REMARK  28 active torsions:
REMARK  status: ('A' for Active; 'I' for Inactive)
REMARK    1  A    between atoms: C_2  and  O_3 
REMARK    2  A    between atoms: C_2  and  C_4 
REMARK    3  A    between atoms: C_4  and  C_5 
REMARK    4  A    between atoms: C_5  and  C_6 
REMARK    5  A    between atoms: C_7  and  C_8 
REMARK    6  A    between atoms: C_8  and  C_9 
REMARK    7  A    between atoms: C_9  and  O_11 
REMARK    8  A    between atoms: C_28  and  C_29 
REMARK    9  A    between atoms: C_29  and  C_30 
REMARK   10  A    between atoms: C_30  and  O_32 
REMARK   11  A    between atoms: C_33  and  C_34 
REMARK   12  A    between atoms: C_34  and  C_35 
REMARK   13  A    between atoms: C_35  and  C_36 
REMARK   14  A    between atoms: C_36  and  O_38 
REMARK   15  A    between atoms: C_39  and  C_40 
REMARK   16  A    between atoms: C_40  and  C_41 
REMARK   17  A    between atoms: C_41  and  C_42 
REMARK   18  A    between atoms: C_42  and  O_44 
REMARK   19  A    between atoms: C_45  and  C_46 
REMARK   20  A    between atoms: C_46  and  C_47 
REMARK   21  A    between atoms: C_47  and  O_49 
REMARK   22  A    between atoms: C_50  and  C_51 
REMARK   23  A    between atoms: C_51  and  C_52 
REMARK   24  A    between atoms: C_52  and  O_54 
REMARK   25  A    between atoms: C_55  and  C_56 
REMARK   26  A    between atoms: C_56  and  C_57 
REMARK   27  A    between atoms: C_57  and  C_58 
REMARK   28  A    between atoms: C_58  and  O_60 
ROOT
ATOM      1  O   UNK d   0     -13.819  15.441 -33.793  0.00  0.00    -0.650 OA
ATOM      2  C   UNK d   0     -12.756  14.782 -33.828  0.00  0.00     0.139 C 
ENDROOT
BRANCH   2   3
ATOM      3  O   UNK d   0     -11.797  15.000 -32.868  0.00  0.00    -0.776 OA
ATOM      4  H   UNK d   0     -11.656  15.929 -32.465  0.00  0.00     0.167 HD
ENDBRANCH   2   3
BRANCH   2   5
ATOM      5  C   UNK d   0     -12.536  13.773 -34.902  0.00  0.00     0.115 C 
BRANCH   5   6
ATOM      6  C   UNK d   0     -11.801  14.397 -36.057  0.00  0.00     0.052 C 
BRANCH   6   7
ATOM      7  C   UNK d   0     -10.434  13.792 -36.271  0.00  0.00    -0.020 A 
ATOM      8  C   UNK d   0      -9.277  14.401 -36.234  0.00  0.00    -0.011 A 
ATOM      9  C   UNK d   0      -8.246  13.415 -36.508  0.00  0.00     0.067 A 
ATOM     10  C   UNK d   0      -6.845  13.411 -36.591  0.00  0.00     0.062 C 
ATOM     11  N   UNK d   0      -8.865  12.232 -36.706  0.00  0.00    -0.248 NA
ATOM     12  C   UNK d   0      -5.999  12.296 -36.592  0.00  0.00     0.041 A 
ATOM     13  N   UNK d   0      -6.095  11.111 -37.225  0.00  0.00    -0.355 N 
ATOM     14  C   UNK d   0      -4.854  12.310 -35.775  0.00  0.00    -0.022 A 
ATOM     15  C   UNK d   0      -5.044  10.370 -36.824  0.00  0.00     0.042 A 
ATOM     16  H   UNK d   0      -6.879  10.812 -37.954  0.00  0.00     0.166 HD
ATOM     17  C   UNK d   0      -4.663   9.060 -37.177  0.00  0.00     0.062 C 
ATOM     18  C   UNK d   0      -4.243  11.088 -35.915  0.00  0.00    -0.013 A 
ATOM     19  C   UNK d   0      -5.440   7.935 -37.282  0.00  0.00     0.067 A 
ATOM     20  N   UNK d   0      -6.764   8.108 -37.242  0.00  0.00    -0.248 NA
ATOM     21  C   UNK d   0      -5.199   6.508 -37.419  0.00  0.00    -0.011 A 
ATOM     22  C   UNK d   0      -7.405   6.898 -37.342  0.00  0.00     0.066 A 
ATOM     23  C   UNK d   0      -8.792   6.935 -37.352  0.00  0.00     0.062 C 
ATOM     24  C   UNK d   0      -6.353   5.907 -37.450  0.00  0.00    -0.020 A 
ATOM     25  C   UNK d   0      -9.623   8.066 -37.364  0.00  0.00     0.041 A 
ATOM     26  N   UNK d   0      -9.535   9.238 -36.723  0.00  0.00    -0.355 N 
ATOM     27  C   UNK d   0     -10.770   8.052 -38.187  0.00  0.00    -0.022 A 
ATOM     28  C   UNK d   0     -10.587   9.975 -37.114  0.00  0.00     0.042 A 
ATOM     29  H   UNK d   0      -8.753   9.533 -35.982  0.00  0.00     0.166 HD
ATOM     30  C   UNK d   0     -10.983  11.276 -36.764  0.00  0.00     0.062 C 
ATOM     31  C   UNK d   0     -11.385   9.257 -38.036  0.00  0.00    -0.013 A 
ATOM     32  C   UNK d   0     -10.183  12.391 -36.577  0.00  0.00     0.066 A 
BRANCH   8  33
ATOM     33  C   UNK d   0      -9.039  15.832 -35.969  0.00  0.00     0.151 C 
BRANCH  33  34
ATOM     34  C   UNK d   0      -8.927  16.135 -34.531  0.00  0.00     0.143 C 
ATOM     35  O   UNK d   0      -7.982  15.697 -33.860  0.00  0.00    -0.650 OA
BRANCH  34  36
ATOM     36  O   UNK d   0      -9.887  16.915 -33.928  0.00  0.00    -0.776 OA
ATOM     37  H   UNK d   0      -9.863  17.105 -32.917  0.00  0.00     0.167 HD
ENDBRANCH  34  36
ENDBRANCH  33  34
ENDBRANCH   8  33
BRANCH  31  38
ATOM     38  C   UNK d   0     -12.648   9.706 -38.733  0.00  0.00     0.151 C 
BRANCH  38  39
ATOM     39  C   UNK d   0     -13.832   9.532 -37.918  0.00  0.00     0.143 C 
ATOM     40  O   UNK d   0     -14.249  10.418 -37.152  0.00  0.00    -0.650 OA
BRANCH  39  41
ATOM     41  O   UNK d   0     -14.540   8.332 -37.985  0.00  0.00    -0.776 OA
ATOM     42  H   UNK d   0     -15.546   8.379 -37.799  0.00  0.00     0.167 HD
ENDBRANCH  39  41
ENDBRANCH  38  39
ENDBRANCH  31  38
BRANCH  27  43
ATOM     43  C   UNK d   0     -11.290   6.961 -39.089  0.00  0.00     0.052 C 
BRANCH  43  44
ATOM     44  C   UNK d   0     -12.087   5.926 -38.364  0.00  0.00     0.115 C 
BRANCH  44  45
ATOM     45  C   UNK d   0     -13.207   5.545 -39.264  0.00  0.00     0.139 C 
ATOM     46  O   UNK d   0     -13.581   6.377 -40.127  0.00  0.00    -0.650 OA
BRANCH  45  47
ATOM     47  O   UNK d   0     -13.841   4.324 -39.192  0.00  0.00    -0.776 OA
ATOM     48  H   UNK d   0     -13.490   3.543 -38.615  0.00  0.00     0.167 HD
ENDBRANCH  45  47
ENDBRANCH  44  45
ENDBRANCH  43  44
ENDBRANCH  27  43
BRANCH  24  49
ATOM     49  C   UNK d   0      -6.574   4.460 -37.617  0.00  0.00     0.052 C 
BRANCH  49  50
ATOM     50  C   UNK d   0      -6.955   4.149 -39.042  0.00  0.00     0.115 C 
BRANCH  50  51
ATOM     51  C   UNK d   0      -5.899   4.219 -40.043  0.00  0.00     0.139 C 
ATOM     52  O   UNK d   0      -5.902   5.061 -40.972  0.00  0.00    -0.650 OA
BRANCH  51  53
ATOM     53  O   UNK d   0      -4.840   3.327 -39.986  0.00  0.00    -0.776 OA
ATOM     54  H   UNK d   0      -4.722   2.679 -40.746  0.00  0.00     0.167 HD
ENDBRANCH  51  53
ENDBRANCH  50  51
ENDBRANCH  49  50
ENDBRANCH  24  49
BRANCH  21  55
ATOM     55  C   UNK d   0      -3.841   5.896 -37.510  0.00  0.00     0.151 C 
BRANCH  55  56
ATOM     56  C   UNK d   0      -3.053   6.117 -36.288  0.00  0.00     0.143 C 
ATOM     57  O   UNK d   0      -3.366   5.628 -35.185  0.00  0.00    -0.650 OA
BRANCH  56  58
ATOM     58  O   UNK d   0      -1.911   6.910 -36.386  0.00  0.00    -0.776 OA
ATOM     59  H   UNK d   0      -1.719   7.283 -37.333  0.00  0.00     0.167 HD
ENDBRANCH  56  58
ENDBRANCH  55  56
ENDBRANCH  21  55
BRANCH  18  60
ATOM     60  C   UNK d   0      -2.979  10.668 -35.208  0.00  0.00     0.151 C 
BRANCH  60  61
ATOM     61  C   UNK d   0      -1.876  10.992 -36.125  0.00  0.00     0.143 C 
ATOM     62  O   UNK d   0      -0.674  10.802 -35.937  0.00  0.00    -0.650 OA
BRANCH  61  63
ATOM     63  O   UNK d   0      -2.266  11.587 -37.349  0.00  0.00    -0.776 OA
ATOM     64  H   UNK d   0      -2.220  11.074 -38.212  0.00  0.00     0.167 HD
ENDBRANCH  61  63
ENDBRANCH  60  61
ENDBRANCH  18  60
BRANCH  14  65
ATOM     65  C   UNK d   0      -4.245  13.414 -34.958  0.00  0.00     0.052 C 
BRANCH  65  66
ATOM     66  C   UNK d   0      -3.288  14.250 -35.731  0.00  0.00     0.115 C 
BRANCH  66  67
ATOM     67  C   UNK d   0      -2.073  14.699 -35.111  0.00  0.00     0.139 C 
ATOM     68  O   UNK d   0      -1.281  13.821 -34.605  0.00  0.00    -0.650 OA
BRANCH  67  69
ATOM     69  O   UNK d   0      -1.618  16.010 -34.976  0.00  0.00    -0.776 OA
ATOM     70  H   UNK d   0      -2.279  16.672 -34.545  0.00  0.00     0.167 HD
ENDBRANCH  67  69
ENDBRANCH  66  67
ENDBRANCH  65  66
ENDBRANCH  14  65
ENDBRANCH   6   7
ENDBRANCH   5   6
ENDBRANCH   2   5
TORSDOF 28
ENDMDL
MODEL 15
REMARK VINA RESULT:      -7.4      2.336      8.551
REMARK  28 active torsions:
REMARK  status: ('A' for Active; 'I' for Inactive)
REMARK    1  A    between atoms: C_2  and  O_3 
REMARK    2  A    between atoms: C_2  and  C_4 
REMARK    3  A    between atoms: C_4  and  C_5 
REMARK    4  A    between atoms: C_5  and  C_6 
REMARK    5  A    between atoms: C_7  and  C_8 
REMARK    6  A    between atoms: C_8  and  C_9 
REMARK    7  A    between atoms: C_9  and  O_11 
REMARK    8  A    between atoms: C_28  and  C_29 
REMARK    9  A    between atoms: C_29  and  C_30 
REMARK   10  A    between atoms: C_30  and  O_32 
REMARK   11  A    between atoms: C_33  and  C_34 
REMARK   12  A    between atoms: C_34  and  C_35 
REMARK   13  A    between atoms: C_35  and  C_36 
REMARK   14  A    between atoms: C_36  and  O_38 
REMARK   15  A    between atoms: C_39  and  C_40 
REMARK   16  A    between atoms: C_40  and  C_41 
REMARK   17  A    between atoms: C_41  and  C_42 
REMARK   18  A    between atoms: C_42  and  O_44 
REMARK   19  A    between atoms: C_45  and  C_46 
REMARK   20  A    between atoms: C_46  and  C_47 
REMARK   21  A    between atoms: C_47  and  O_49 
REMARK   22  A    between atoms: C_50  and  C_51 
REMARK   23  A    between atoms: C_51  and  C_52 
REMARK   24  A    between atoms: C_52  and  O_54 
REMARK   25  A    between atoms: C_55  and  C_56 
REMARK   26  A    between atoms: C_56  and  C_57 
REMARK   27  A    between atoms: C_57  and  C_58 
REMARK   28  A    between atoms: C_58  and  O_60 
ROOT
ATOM      1  O   UNK d   0      -9.678  13.938 -34.573  0.00  0.00    -0.650 OA
ATOM      2  C   UNK d   0      -9.055  13.682 -35.627  0.00  0.00     0.139 C 
ENDROOT
BRANCH   2   3
ATOM      3  O   UNK d   0      -9.674  13.873 -36.839  0.00  0.00    -0.776 OA
ATOM      4  H   UNK d   0      -9.787  14.810 -37.232  0.00  0.00     0.167 HD
ENDBRANCH   2   3
BRANCH   2   5
ATOM      5  C   UNK d   0      -7.656  13.174 -35.564  0.00  0.00     0.115 C 
BRANCH   5   6
ATOM      6  C   UNK d   0      -7.456  12.081 -36.579  0.00  0.00     0.052 C 
BRANCH   6   7
ATOM      7  C   UNK d   0      -7.251  10.727 -35.942  0.00  0.00    -0.020 A 
ATOM      8  C   UNK d   0      -8.147   9.979 -35.352  0.00  0.00    -0.011 A 
ATOM      9  C   UNK d   0      -7.483   8.772 -34.888  0.00  0.00     0.067 A 
ATOM     10  C   UNK d   0      -7.867   7.597 -34.222  0.00  0.00     0.062 C 
ATOM     11  N   UNK d   0      -6.182   8.872 -35.233  0.00  0.00    -0.248 NA
ATOM     12  C   UNK d   0      -7.134   6.412 -34.104  0.00  0.00     0.041 A 
ATOM     13  N   UNK d   0      -5.830   6.198 -33.846  0.00  0.00    -0.355 N 
ATOM     14  C   UNK d   0      -7.783   5.185 -34.334  0.00  0.00    -0.022 A 
ATOM     15  C   UNK d   0      -5.633   4.867 -33.913  0.00  0.00     0.042 A 
ATOM     16  H   UNK d   0      -5.067   6.970 -33.602  0.00  0.00     0.166 HD
ATOM     17  C   UNK d   0      -4.461   4.107 -33.726  0.00  0.00     0.062 C 
ATOM     18  C   UNK d   0      -6.834   4.199 -34.217  0.00  0.00    -0.013 A 
ATOM     19  C   UNK d   0      -3.198   4.336 -34.208  0.00  0.00     0.067 A 
ATOM     20  N   UNK d   0      -2.971   5.528 -34.767  0.00  0.00    -0.248 NA
ATOM     21  C   UNK d   0      -1.960   3.580 -34.295  0.00  0.00    -0.011 A 
ATOM     22  C   UNK d   0      -1.675   5.606 -35.214  0.00  0.00     0.066 A 
ATOM     23  C   UNK d   0      -1.291   6.810 -35.785  0.00  0.00     0.062 C 
ATOM     24  C   UNK d   0      -1.073   4.327 -34.888  0.00  0.00    -0.020 A 
ATOM     25  C   UNK d   0      -2.038   7.994 -35.881  0.00  0.00     0.041 A 
ATOM     26  N   UNK d   0      -3.331   8.207 -36.153  0.00  0.00    -0.355 N 
ATOM     27  C   UNK d   0      -1.387   9.224 -35.647  0.00  0.00    -0.022 A 
ATOM     28  C   UNK d   0      -3.528   9.534 -36.095  0.00  0.00     0.042 A 
ATOM     29  H   UNK d   0      -4.094   7.431 -36.408  0.00  0.00     0.166 HD
ATOM     30  C   UNK d   0      -4.686  10.304 -36.288  0.00  0.00     0.062 C 
ATOM     31  C   UNK d   0      -2.323  10.204 -35.779  0.00  0.00    -0.013 A 
ATOM     32  C   UNK d   0      -5.978  10.025 -35.871  0.00  0.00     0.066 A 
BRANCH   8  33
ATOM     33  C   UNK d   0      -9.578  10.287 -35.173  0.00  0.00     0.151 C 
BRANCH  33  34
ATOM     34  C   UNK d   0     -10.346  10.177 -36.426  0.00  0.00     0.143 C 
ATOM     35  O   UNK d   0     -10.223   9.189 -37.164  0.00  0.00    -0.650 OA
BRANCH  34  36
ATOM     36  O   UNK d   0     -11.211  11.187 -36.779  0.00  0.00    -0.776 OA
ATOM     37  H   UNK d   0     -10.908  11.963 -37.384  0.00  0.00     0.167 HD
ENDBRANCH  34  36
ENDBRANCH  33  34
ENDBRANCH   8  33
BRANCH  31  38
ATOM     38  C   UNK d   0      -2.092  11.687 -35.604  0.00  0.00     0.151 C 
BRANCH  38  39
ATOM     39  C   UNK d   0      -1.668  12.337 -36.826  0.00  0.00     0.143 C 
ATOM     40  O   UNK d   0      -2.014  11.932 -37.950  0.00  0.00    -0.650 OA
BRANCH  39  41
ATOM     41  O   UNK d   0      -0.844  13.460 -36.755  0.00  0.00    -0.776 OA
ATOM     42  H   UNK d   0      -1.228  14.339 -37.115  0.00  0.00     0.167 HD
ENDBRANCH  39  41
ENDBRANCH  38  39
ENDBRANCH  31  38
BRANCH  27  43
ATOM     43  C   UNK d   0       0.058   9.495 -35.312  0.00  0.00     0.052 C 
BRANCH  43  44
ATOM     44  C   UNK d   0       0.344   9.445 -33.846  0.00  0.00     0.115 C 
BRANCH  44  45
ATOM     45  C   UNK d   0       1.383   8.401 -33.651  0.00  0.00     0.139 C 
ATOM     46  O   UNK d   0       1.008   7.243 -33.341  0.00  0.00    -0.650 OA
BRANCH  45  47
ATOM     47  O   UNK d   0       2.730   8.650 -33.803  0.00  0.00    -0.776 OA
ATOM     48  H   UNK d   0       3.136   9.027 -34.674  0.00  0.00     0.167 HD
ENDBRANCH  45  47
ENDBRANCH  44  45
ENDBRANCH  43  44
ENDBRANCH  27  43
BRANCH  24  49
ATOM     49  C   UNK d   0       0.331   3.968 -35.149  0.00  0.00     0.052 C 
BRANCH  49  50
ATOM     50  C   UNK d   0       0.570   3.828 -36.630  0.00  0.00     0.115 C 
BRANCH  50  51
ATOM     51  C   UNK d   0       1.542   4.728 -37.235  0.00  0.00     0.139 C 
ATOM     52  O   UNK d   0       1.251   5.507 -38.173  0.00  0.00    -0.650 OA
BRANCH  51  53
ATOM     53  O   UNK d   0       2.849   4.740 -36.770  0.00  0.00    -0.776 OA
ATOM     54  H   UNK d   0       3.100   4.097 -36.041  0.00  0.00     0.167 HD
ENDBRANCH  51  53
ENDBRANCH  50  51
ENDBRANCH  49  50
ENDBRANCH  24  49
BRANCH  21  55
ATOM     55  C   UNK d   0      -1.790   2.192 -33.772  0.00  0.00     0.151 C 
BRANCH  55  56
ATOM     56  C   UNK d   0      -2.061   1.178 -34.803  0.00  0.00     0.143 C 
ATOM     57  O   UNK d   0      -1.323   0.191 -34.989  0.00  0.00    -0.650 OA
BRANCH  56  58
ATOM     58  O   UNK d   0      -3.196   1.345 -35.595  0.00  0.00    -0.776 OA
ATOM     59  H   UNK d   0      -3.044   1.200 -36.610  0.00  0.00     0.167 HD
ENDBRANCH  56  58
ENDBRANCH  55  56
ENDBRANCH  21  55
BRANCH  18  60
ATOM     60  C   UNK d   0      -7.095   2.724 -34.395  0.00  0.00     0.151 C 
BRANCH  60  61
ATOM     61  C   UNK d   0      -6.875   2.444 -35.822  0.00  0.00     0.143 C 
ATOM     62  O   UNK d   0      -5.853   2.665 -36.473  0.00  0.00    -0.650 OA
BRANCH  61  63
ATOM     63  O   UNK d   0      -7.972   1.856 -36.496  0.00  0.00    -0.776 OA
ATOM     64  H   UNK d   0      -8.913   2.160 -36.319  0.00  0.00     0.167 HD
ENDBRANCH  61  63
ENDBRANCH  60  61
ENDBRANCH  18  60
BRANCH  14  65
ATOM     65  C   UNK d   0      -9.235   4.869 -34.554  0.00  0.00     0.052 C 
BRANCH  65  66
ATOM     66  C   UNK d   0      -9.622   4.885 -35.991  0.00  0.00     0.115 C 
BRANCH  66  67
ATOM     67  C   UNK d   0     -10.541   5.878 -36.469  0.00  0.00     0.139 C 
ATOM     68  O   UNK d   0     -10.808   5.912 -37.727  0.00  0.00    -0.650 OA
BRANCH  67  69
ATOM     69  O   UNK d   0     -11.210   6.851 -35.726  0.00  0.00    -0.776 OA
ATOM     70  H   UNK d   0     -11.551   7.665 -36.258  0.00  0.00     0.167 HD
ENDBRANCH  67  69
ENDBRANCH  66  67
ENDBRANCH  65  66
ENDBRANCH  14  65
ENDBRANCH   6   7
ENDBRANCH   5   6
ENDBRANCH   2   5
TORSDOF 28
ENDMDL
MODEL 16
REMARK VINA RESULT:      -7.4      1.818      8.497
REMARK  28 active torsions:
REMARK  status: ('A' for Active; 'I' for Inactive)
REMARK    1  A    between atoms: C_2  and  O_3 
REMARK    2  A    between atoms: C_2  and  C_4 
REMARK    3  A    between atoms: C_4  and  C_5 
REMARK    4  A    between atoms: C_5  and  C_6 
REMARK    5  A    between atoms: C_7  and  C_8 
REMARK    6  A    between atoms: C_8  and  C_9 
REMARK    7  A    between atoms: C_9  and  O_11 
REMARK    8  A    between atoms: C_28  and  C_29 
REMARK    9  A    between atoms: C_29  and  C_30 
REMARK   10  A    between atoms: C_30  and  O_32 
REMARK   11  A    between atoms: C_33  and  C_34 
REMARK   12  A    between atoms: C_34  and  C_35 
REMARK   13  A    between atoms: C_35  and  C_36 
REMARK   14  A    between atoms: C_36  and  O_38 
REMARK   15  A    between atoms: C_39  and  C_40 
REMARK   16  A    between atoms: C_40  and  C_41 
REMARK   17  A    between atoms: C_41  and  C_42 
REMARK   18  A    between atoms: C_42  and  O_44 
REMARK   19  A    between atoms: C_45  and  C_46 
REMARK   20  A    between atoms: C_46  and  C_47 
REMARK   21  A    between atoms: C_47  and  O_49 
REMARK   22  A    between atoms: C_50  and  C_51 
REMARK   23  A    between atoms: C_51  and  C_52 
REMARK   24  A    between atoms: C_52  and  O_54 
REMARK   25  A    between atoms: C_55  and  C_56 
REMARK   26  A    between atoms: C_56  and  C_57 
REMARK   27  A    between atoms: C_57  and  C_58 
REMARK   28  A    between atoms: C_58  and  O_60 
ROOT
ATOM      1  O   UNK d   0      -0.187  -1.313 -36.541  0.00  0.00    -0.650 OA
ATOM      2  C   UNK d   0      -0.086  -0.217 -35.946  0.00  0.00     0.139 C 
ENDROOT
BRANCH   2   3
ATOM      3  O   UNK d   0       0.702  -0.131 -34.823  0.00  0.00    -0.776 OA
ATOM      4  H   UNK d   0       0.691   0.704 -34.234  0.00  0.00     0.167 HD
ENDBRANCH   2   3
BRANCH   2   5
ATOM      5  C   UNK d   0      -0.816   0.980 -36.452  0.00  0.00     0.115 C 
BRANCH   5   6
ATOM      6  C   UNK d   0      -2.000   1.274 -35.573  0.00  0.00     0.052 C 
BRANCH   6   7
ATOM      7  C   UNK d   0      -2.816   2.444 -36.069  0.00  0.00    -0.020 A 
ATOM      8  C   UNK d   0      -3.969   2.408 -36.687  0.00  0.00    -0.011 A 
ATOM      9  C   UNK d   0      -4.361   3.778 -36.975  0.00  0.00     0.067 A 
ATOM     10  C   UNK d   0      -5.459   4.411 -37.578  0.00  0.00     0.062 C 
ATOM     11  N   UNK d   0      -3.386   4.582 -36.502  0.00  0.00    -0.248 NA
ATOM     12  C   UNK d   0      -5.793   5.768 -37.517  0.00  0.00     0.041 A 
ATOM     13  N   UNK d   0      -5.031   6.874 -37.616  0.00  0.00    -0.355 N 
ATOM     14  C   UNK d   0      -7.128   6.129 -37.257  0.00  0.00    -0.022 A 
ATOM     15  C   UNK d   0      -5.846   7.927 -37.418  0.00  0.00     0.042 A 
ATOM     16  H   UNK d   0      -3.943   6.910 -37.841  0.00  0.00     0.166 HD
ATOM     17  C   UNK d   0      -5.569   9.309 -37.415  0.00  0.00     0.062 C 
ATOM     18  C   UNK d   0      -7.169   7.500 -37.189  0.00  0.00    -0.013 A 
ATOM     19  C   UNK d   0      -4.530   9.978 -36.821  0.00  0.00     0.067 A 
ATOM     20  N   UNK d   0      -3.527   9.237 -36.343  0.00  0.00    -0.248 NA
ATOM     21  C   UNK d   0      -4.207  11.367 -36.540  0.00  0.00    -0.011 A 
ATOM     22  C   UNK d   0      -2.573  10.040 -35.768  0.00  0.00     0.066 A 
ATOM     23  C   UNK d   0      -1.452   9.399 -35.262  0.00  0.00     0.062 C 
ATOM     24  C   UNK d   0      -3.062  11.396 -35.920  0.00  0.00    -0.020 A 
ATOM     25  C   UNK d   0      -1.129   8.036 -35.345  0.00  0.00     0.041 A 
ATOM     26  N   UNK d   0      -1.883   6.937 -35.232  0.00  0.00    -0.355 N 
ATOM     27  C   UNK d   0       0.210   7.674 -35.610  0.00  0.00    -0.022 A 
ATOM     28  C   UNK d   0      -1.071   5.885 -35.421  0.00  0.00     0.042 A 
ATOM     29  H   UNK d   0      -2.975   6.902 -34.995  0.00  0.00     0.166 HD
ATOM     30  C   UNK d   0      -1.332   4.505 -35.417  0.00  0.00     0.062 C 
ATOM     31  C   UNK d   0       0.255   6.315 -35.661  0.00  0.00    -0.013 A 
ATOM     32  C   UNK d   0      -2.428   3.841 -35.945  0.00  0.00     0.066 A 
BRANCH   8  33
ATOM     33  C   UNK d   0      -4.746   1.207 -37.043  0.00  0.00     0.151 C 
BRANCH  33  34
ATOM     34  C   UNK d   0      -4.532   0.782 -38.438  0.00  0.00     0.143 C 
ATOM     35  O   UNK d   0      -3.476   1.047 -39.030  0.00  0.00    -0.650 OA
BRANCH  34  36
ATOM     36  O   UNK d   0      -5.521   0.082 -39.090  0.00  0.00    -0.776 OA
ATOM     37  H   UNK d   0      -5.547  -0.947 -39.075  0.00  0.00     0.167 HD
ENDBRANCH  34  36
ENDBRANCH  33  34
ENDBRANCH   8  33
BRANCH  31  38
ATOM     38  C   UNK d   0       1.480   5.473 -35.933  0.00  0.00     0.151 C 
BRANCH  38  39
ATOM     39  C   UNK d   0       1.731   5.288 -37.347  0.00  0.00     0.143 C 
ATOM     40  O   UNK d   0       1.319   4.295 -37.971  0.00  0.00    -0.650 OA
BRANCH  39  41
ATOM     41  O   UNK d   0       2.459   6.251 -38.046  0.00  0.00    -0.776 OA
ATOM     42  H   UNK d   0       1.959   7.105 -38.311  0.00  0.00     0.167 HD
ENDBRANCH  39  41
ENDBRANCH  38  39
ENDBRANCH  31  38
BRANCH  27  43
ATOM     43  C   UNK d   0       1.419   8.554 -35.811  0.00  0.00     0.052 C 
BRANCH  43  44
ATOM     44  C   UNK d   0       2.179   8.810 -34.550  0.00  0.00     0.115 C 
BRANCH  44  45
ATOM     45  C   UNK d   0       3.414   7.986 -34.624  0.00  0.00     0.139 C 
ATOM     46  O   UNK d   0       4.004   7.904 -35.730  0.00  0.00    -0.650 OA
BRANCH  45  47
ATOM     47  O   UNK d   0       3.934   7.320 -33.536  0.00  0.00    -0.776 OA
ATOM     48  H   UNK d   0       4.910   6.984 -33.499  0.00  0.00     0.167 HD
ENDBRANCH  45  47
ENDBRANCH  44  45
ENDBRANCH  43  44
ENDBRANCH  27  43
BRANCH  24  49
ATOM     49  C   UNK d   0      -2.342  12.604 -35.482  0.00  0.00     0.052 C 
BRANCH  49  50
ATOM     50  C   UNK d   0      -2.016  13.478 -36.666  0.00  0.00     0.115 C 
BRANCH  50  51
ATOM     51  C   UNK d   0      -1.209  12.889 -37.726  0.00  0.00     0.139 C 
ATOM     52  O   UNK d   0      -0.399  11.955 -37.518  0.00  0.00    -0.650 OA
BRANCH  51  53
ATOM     53  O   UNK d   0      -1.324  13.366 -39.022  0.00  0.00    -0.776 OA
ATOM     54  H   UNK d   0      -2.208  13.745 -39.312  0.00  0.00     0.167 HD
ENDBRANCH  51  53
ENDBRANCH  50  51
ENDBRANCH  49  50
ENDBRANCH  24  49
BRANCH  21  55
ATOM     55  C   UNK d   0      -5.073  12.520 -36.924  0.00  0.00     0.151 C 
BRANCH  55  56
ATOM     56  C   UNK d   0      -6.073  12.828 -35.890  0.00  0.00     0.143 C 
ATOM     57  O   UNK d   0      -7.181  12.260 -35.832  0.00  0.00    -0.650 OA
BRANCH  56  58
ATOM     58  O   UNK d   0      -5.749  13.798 -34.942  0.00  0.00    -0.776 OA
ATOM     59  H   UNK d   0      -4.780  14.160 -35.002  0.00  0.00     0.167 HD
ENDBRANCH  56  58
ENDBRANCH  55  56
ENDBRANCH  21  55
BRANCH  18  60
ATOM     60  C   UNK d   0      -8.409   8.315 -36.918  0.00  0.00     0.151 C 
BRANCH  60  61
ATOM     61  C   UNK d   0      -8.361   8.660 -35.489  0.00  0.00     0.143 C 
ATOM     62  O   UNK d   0      -7.986   7.939 -34.564  0.00  0.00    -0.650 OA
BRANCH  61  63
ATOM     63  O   UNK d   0      -8.800   9.967 -35.170  0.00  0.00    -0.776 OA
ATOM     64  H   UNK d   0      -8.146  10.684 -34.908  0.00  0.00     0.167 HD
ENDBRANCH  61  63
ENDBRANCH  60  61
ENDBRANCH  18  60
BRANCH  14  65
ATOM     65  C   UNK d   0      -8.371   5.291 -37.167  0.00  0.00     0.052 C 
BRANCH  65  66
ATOM     66  C   UNK d   0      -9.021   5.071 -38.487  0.00  0.00     0.115 C 
BRANCH  66  67
ATOM     67  C   UNK d   0     -10.315   5.635 -38.747  0.00  0.00     0.139 C 
ATOM     68  O   UNK d   0     -10.795   5.549 -39.937  0.00  0.00    -0.650 OA
BRANCH  67  69
ATOM     69  O   UNK d   0     -11.156   6.291 -37.848  0.00  0.00    -0.776 OA
ATOM     70  H   UNK d   0     -10.828   7.210 -37.517  0.00  0.00     0.167 HD
ENDBRANCH  67  69
ENDBRANCH  66  67
ENDBRANCH  65  66
ENDBRANCH  14  65
ENDBRANCH   6   7
ENDBRANCH   5   6
ENDBRANCH   2   5
TORSDOF 28
ENDMDL
MODEL 17
REMARK VINA RESULT:      -7.3      2.172      7.387
REMARK  28 active torsions:
REMARK  status: ('A' for Active; 'I' for Inactive)
REMARK    1  A    between atoms: C_2  and  O_3 
REMARK    2  A    between atoms: C_2  and  C_4 
REMARK    3  A    between atoms: C_4  and  C_5 
REMARK    4  A    between atoms: C_5  and  C_6 
REMARK    5  A    between atoms: C_7  and  C_8 
REMARK    6  A    between atoms: C_8  and  C_9 
REMARK    7  A    between atoms: C_9  and  O_11 
REMARK    8  A    between atoms: C_28  and  C_29 
REMARK    9  A    between atoms: C_29  and  C_30 
REMARK   10  A    between atoms: C_30  and  O_32 
REMARK   11  A    between atoms: C_33  and  C_34 
REMARK   12  A    between atoms: C_34  and  C_35 
REMARK   13  A    between atoms: C_35  and  C_36 
REMARK   14  A    between atoms: C_36  and  O_38 
REMARK   15  A    between atoms: C_39  and  C_40 
REMARK   16  A    between atoms: C_40  and  C_41 
REMARK   17  A    between atoms: C_41  and  C_42 
REMARK   18  A    between atoms: C_42  and  O_44 
REMARK   19  A    between atoms: C_45  and  C_46 
REMARK   20  A    between atoms: C_46  and  C_47 
REMARK   21  A    between atoms: C_47  and  O_49 
REMARK   22  A    between atoms: C_50  and  C_51 
REMARK   23  A    between atoms: C_51  and  C_52 
REMARK   24  A    between atoms: C_52  and  O_54 
REMARK   25  A    between atoms: C_55  and  C_56 
REMARK   26  A    between atoms: C_56  and  C_57 
REMARK   27  A    between atoms: C_57  and  C_58 
REMARK   28  A    between atoms: C_58  and  O_60 
ROOT
ATOM      1  O   UNK d   0      -7.876  12.318 -35.886  0.00  0.00    -0.650 OA
ATOM      2  C   UNK d   0      -7.340  12.740 -36.934  0.00  0.00     0.139 C 
ENDROOT
BRANCH   2   3
ATOM      3  O   UNK d   0      -8.134  13.152 -37.978  0.00  0.00    -0.776 OA
ATOM      4  H   UNK d   0      -9.052  12.733 -38.139  0.00  0.00     0.167 HD
ENDBRANCH   2   3
BRANCH   2   5
ATOM      5  C   UNK d   0      -5.855  12.793 -37.046  0.00  0.00     0.115 C 
BRANCH   5   6
ATOM      6  C   UNK d   0      -5.224  12.495 -35.713  0.00  0.00     0.052 C 
BRANCH   6   7
ATOM      7  C   UNK d   0      -4.326  11.282 -35.754  0.00  0.00    -0.020 A 
ATOM      8  C   UNK d   0      -3.018  11.258 -35.785  0.00  0.00    -0.011 A 
ATOM      9  C   UNK d   0      -2.599   9.867 -35.827  0.00  0.00     0.067 A 
ATOM     10  C   UNK d   0      -1.377   9.177 -35.850  0.00  0.00     0.062 C 
ATOM     11  N   UNK d   0      -3.718   9.111 -35.823  0.00  0.00    -0.248 NA
ATOM     12  C   UNK d   0      -1.167   7.816 -35.607  0.00  0.00     0.041 A 
ATOM     13  N   UNK d   0      -1.851   6.728 -36.008  0.00  0.00    -0.355 N 
ATOM     14  C   UNK d   0      -0.110   7.431 -34.762  0.00  0.00    -0.022 A 
ATOM     15  C   UNK d   0      -1.261   5.663 -35.433  0.00  0.00     0.042 A 
ATOM     16  H   UNK d   0      -2.723   6.711 -36.699  0.00  0.00     0.166 HD
ATOM     17  C   UNK d   0      -1.571   4.291 -35.516  0.00  0.00     0.062 C 
ATOM     18  C   UNK d   0      -0.166   6.064 -34.644  0.00  0.00    -0.013 A 
ATOM     19  C   UNK d   0      -2.795   3.677 -35.438  0.00  0.00     0.067 A 
ATOM     20  N   UNK d   0      -3.872   4.467 -35.485  0.00  0.00    -0.248 NA
ATOM     21  C   UNK d   0      -3.272   2.312 -35.294  0.00  0.00    -0.011 A 
ATOM     22  C   UNK d   0      -5.018   3.717 -35.381  0.00  0.00     0.066 A 
ATOM     23  C   UNK d   0      -6.217   4.410 -35.455  0.00  0.00     0.062 C 
ATOM     24  C   UNK d   0      -4.573   2.342 -35.257  0.00  0.00    -0.020 A 
ATOM     25  C   UNK d   0      -6.406   5.776 -35.713  0.00  0.00     0.041 A 
ATOM     26  N   UNK d   0      -5.735   6.859 -35.302  0.00  0.00    -0.355 N 
ATOM     27  C   UNK d   0      -7.464   6.162 -36.565  0.00  0.00    -0.022 A 
ATOM     28  C   UNK d   0      -6.327   7.923 -35.867  0.00  0.00     0.042 A 
ATOM     29  H   UNK d   0      -4.866   6.875 -34.599  0.00  0.00     0.166 HD
ATOM     30  C   UNK d   0      -6.035   9.293 -35.786  0.00  0.00     0.062 C 
ATOM     31  C   UNK d   0      -7.421   7.518 -36.668  0.00  0.00    -0.013 A 
ATOM     32  C   UNK d   0      -4.790   9.903 -35.779  0.00  0.00     0.066 A 
BRANCH   8  33
ATOM     33  C   UNK d   0      -2.111  12.421 -35.786  0.00  0.00     0.151 C 
BRANCH  33  34
ATOM     34  C   UNK d   0      -1.617  12.759 -37.133  0.00  0.00     0.143 C 
ATOM     35  O   UNK d   0      -1.952  12.089 -38.120  0.00  0.00    -0.650 OA
BRANCH  34  36
ATOM     36  O   UNK d   0      -0.772  13.833 -37.293  0.00  0.00    -0.776 OA
ATOM     37  H   UNK d   0      -1.121  14.799 -37.243  0.00  0.00     0.167 HD
ENDBRANCH  34  36
ENDBRANCH  33  34
ENDBRANCH   8  33
BRANCH  31  38
ATOM     38  C   UNK d   0      -8.353   8.379 -37.488  0.00  0.00     0.151 C 
BRANCH  38  39
ATOM     39  C   UNK d   0      -9.571   8.718 -36.783  0.00  0.00     0.143 C 
ATOM     40  O   UNK d   0     -10.628   8.082 -36.937  0.00  0.00    -0.650 OA
BRANCH  39  41
ATOM     41  O   UNK d   0      -9.573   9.794 -35.896  0.00  0.00    -0.776 OA
ATOM     42  H   UNK d   0      -9.942  10.683 -36.249  0.00  0.00     0.167 HD
ENDBRANCH  39  41
ENDBRANCH  38  39
ENDBRANCH  31  38
BRANCH  27  43
ATOM     43  C   UNK d   0      -8.491   5.307 -37.265  0.00  0.00     0.052 C 
BRANCH  43  44
ATOM     44  C   UNK d   0      -8.166   5.048 -38.700  0.00  0.00     0.115 C 
BRANCH  44  45
ATOM     45  C   UNK d   0      -9.449   5.119 -39.446  0.00  0.00     0.139 C 
ATOM     46  O   UNK d   0      -9.767   4.143 -40.170  0.00  0.00    -0.650 OA
BRANCH  45  47
ATOM     47  O   UNK d   0     -10.299   6.201 -39.370  0.00  0.00    -0.776 OA
ATOM     48  H   UNK d   0      -9.965   7.165 -39.209  0.00  0.00     0.167 HD
ENDBRANCH  45  47
ENDBRANCH  44  45
ENDBRANCH  43  44
ENDBRANCH  27  43
BRANCH  24  49
ATOM     49  C   UNK d   0      -5.467   1.175 -35.158  0.00  0.00     0.052 C 
BRANCH  49  50
ATOM     50  C   UNK d   0      -5.962   1.012 -33.744  0.00  0.00     0.115 C 
BRANCH  50  51
ATOM     51  C   UNK d   0      -5.613  -0.223 -33.055  0.00  0.00     0.139 C 
ATOM     52  O   UNK d   0      -4.473  -0.740 -33.129  0.00  0.00    -0.650 OA
BRANCH  51  53
ATOM     53  O   UNK d   0      -6.566  -0.871 -32.284  0.00  0.00    -0.776 OA
ATOM     54  H   UNK d   0      -6.609  -1.874 -32.326  0.00  0.00     0.167 HD
ENDBRANCH  51  53
ENDBRANCH  50  51
ENDBRANCH  49  50
ENDBRANCH  24  49
BRANCH  21  55
ATOM     55  C   UNK d   0      -2.378   1.119 -35.212  0.00  0.00     0.151 C 
BRANCH  55  56
ATOM     56  C   UNK d   0      -1.431   1.062 -36.337  0.00  0.00     0.143 C 
ATOM     57  O   UNK d   0      -0.196   1.137 -36.183  0.00  0.00    -0.650 OA
BRANCH  56  58
ATOM     58  O   UNK d   0      -1.956   0.918 -37.620  0.00  0.00    -0.776 OA
ATOM     59  H   UNK d   0      -1.684   0.044 -38.106  0.00  0.00     0.167 HD
ENDBRANCH  56  58
ENDBRANCH  55  56
ENDBRANCH  21  55
BRANCH  18  60
ATOM     60  C   UNK d   0       0.781   5.228 -33.819  0.00  0.00     0.151 C 
BRANCH  60  61
ATOM     61  C   UNK d   0       1.696   4.590 -34.777  0.00  0.00     0.143 C 
ATOM     62  O   UNK d   0       2.459   5.152 -35.564  0.00  0.00    -0.650 OA
BRANCH  61  63
ATOM     63  O   UNK d   0       1.678   3.174 -34.775  0.00  0.00    -0.776 OA
ATOM     64  H   UNK d   0       2.513   2.645 -34.956  0.00  0.00     0.167 HD
ENDBRANCH  61  63
ENDBRANCH  60  61
ENDBRANCH  18  60
BRANCH  14  65
ATOM     65  C   UNK d   0       0.996   8.238 -34.143  0.00  0.00     0.052 C 
BRANCH  65  66
ATOM     66  C   UNK d   0       2.107   8.523 -35.090  0.00  0.00     0.115 C 
BRANCH  66  67
ATOM     67  C   UNK d   0       3.466   8.472 -34.629  0.00  0.00     0.139 C 
ATOM     68  O   UNK d   0       3.948   9.499 -34.025  0.00  0.00    -0.650 OA
BRANCH  67  69
ATOM     69  O   UNK d   0       4.369   7.417 -34.753  0.00  0.00    -0.776 OA
ATOM     70  H   UNK d   0       5.359   7.654 -34.591  0.00  0.00     0.167 HD
ENDBRANCH  67  69
ENDBRANCH  66  67
ENDBRANCH  65  66
ENDBRANCH  14  65
ENDBRANCH   6   7
ENDBRANCH   5   6
ENDBRANCH   2   5
TORSDOF 28
ENDMDL
MODEL 18
REMARK VINA RESULT:      -7.2     31.341     34.443
REMARK  28 active torsions:
REMARK  status: ('A' for Active; 'I' for Inactive)
REMARK    1  A    between atoms: C_2  and  O_3 
REMARK    2  A    between atoms: C_2  and  C_4 
REMARK    3  A    between atoms: C_4  and  C_5 
REMARK    4  A    between atoms: C_5  and  C_6 
REMARK    5  A    between atoms: C_7  and  C_8 
REMARK    6  A    between atoms: C_8  and  C_9 
REMARK    7  A    between atoms: C_9  and  O_11 
REMARK    8  A    between atoms: C_28  and  C_29 
REMARK    9  A    between atoms: C_29  and  C_30 
REMARK   10  A    between atoms: C_30  and  O_32 
REMARK   11  A    between atoms: C_33  and  C_34 
REMARK   12  A    between atoms: C_34  and  C_35 
REMARK   13  A    between atoms: C_35  and  C_36 
REMARK   14  A    between atoms: C_36  and  O_38 
REMARK   15  A    between atoms: C_39  and  C_40 
REMARK   16  A    between atoms: C_40  and  C_41 
REMARK   17  A    between atoms: C_41  and  C_42 
REMARK   18  A    between atoms: C_42  and  O_44 
REMARK   19  A    between atoms: C_45  and  C_46 
REMARK   20  A    between atoms: C_46  and  C_47 
REMARK   21  A    between atoms: C_47  and  O_49 
REMARK   22  A    between atoms: C_50  and  C_51 
REMARK   23  A    between atoms: C_51  and  C_52 
REMARK   24  A    between atoms: C_52  and  O_54 
REMARK   25  A    between atoms: C_55  and  C_56 
REMARK   26  A    between atoms: C_56  and  C_57 
REMARK   27  A    between atoms: C_57  and  C_58 
REMARK   28  A    between atoms: C_58  and  O_60 
ROOT
ATOM      1  O   UNK d   0      -8.229  27.524  -5.013  0.00  0.00    -0.650 OA
ATOM      2  C   UNK d   0      -8.791  26.726  -4.231  0.00  0.00     0.139 C 
ENDROOT
BRANCH   2   3
ATOM      3  O   UNK d   0      -9.897  27.138  -3.528  0.00  0.00    -0.776 OA
ATOM      4  H   UNK d   0     -10.404  26.494  -2.917  0.00  0.00     0.167 HD
ENDBRANCH   2   3
BRANCH   2   5
ATOM      5  C   UNK d   0      -8.262  25.342  -4.066  0.00  0.00     0.115 C 
BRANCH   5   6
ATOM      6  C   UNK d   0      -6.785  25.383  -3.781  0.00  0.00     0.052 C 
BRANCH   6   7
ATOM      7  C   UNK d   0      -6.021  24.308  -4.517  0.00  0.00    -0.020 A 
ATOM      8  C   UNK d   0      -5.179  24.463  -5.507  0.00  0.00    -0.011 A 
ATOM      9  C   UNK d   0      -4.702  23.146  -5.895  0.00  0.00     0.067 A 
ATOM     10  C   UNK d   0      -3.799  22.634  -6.840  0.00  0.00     0.062 C 
ATOM     11  N   UNK d   0      -5.310  22.247  -5.093  0.00  0.00    -0.248 NA
ATOM     12  C   UNK d   0      -3.255  21.346  -6.881  0.00  0.00     0.041 A 
ATOM     13  N   UNK d   0      -3.819  20.139  -6.684  0.00  0.00    -0.355 N 
ATOM     14  C   UNK d   0      -1.875  21.196  -7.109  0.00  0.00    -0.022 A 
ATOM     15  C   UNK d   0      -2.831  19.228  -6.773  0.00  0.00     0.042 A 
ATOM     16  H   UNK d   0      -4.898  19.933  -6.505  0.00  0.00     0.166 HD
ATOM     17  C   UNK d   0      -2.868  17.825  -6.650  0.00  0.00     0.062 C 
ATOM     18  C   UNK d   0      -1.598  19.854  -7.038  0.00  0.00    -0.013 A 
ATOM     19  C   UNK d   0      -3.515  17.058  -5.715  0.00  0.00     0.067 A 
ATOM     20  N   UNK d   0      -4.390  17.682  -4.922  0.00  0.00    -0.248 NA
ATOM     21  C   UNK d   0      -3.496  15.661  -5.315  0.00  0.00    -0.011 A 
ATOM     22  C   UNK d   0      -4.944  16.794  -4.032  0.00  0.00     0.066 A 
ATOM     23  C   UNK d   0      -5.903  17.304  -3.169  0.00  0.00     0.062 C 
ATOM     24  C   UNK d   0      -4.331  15.514  -4.327  0.00  0.00    -0.020 A 
ATOM     25  C   UNK d   0      -6.445  18.598  -3.152  0.00  0.00     0.041 A 
ATOM     26  N   UNK d   0      -5.882  19.799  -3.333  0.00  0.00    -0.355 N 
ATOM     27  C   UNK d   0      -7.831  18.747  -2.928  0.00  0.00    -0.022 A 
ATOM     28  C   UNK d   0      -6.863  20.709  -3.236  0.00  0.00     0.042 A 
ATOM     29  H   UNK d   0      -4.796  20.005  -3.502  0.00  0.00     0.166 HD
ATOM     30  C   UNK d   0      -6.839  22.108  -3.347  0.00  0.00     0.062 C 
ATOM     31  C   UNK d   0      -8.104  20.079  -2.980  0.00  0.00    -0.013 A 
ATOM     32  C   UNK d   0      -6.116  22.882  -4.241  0.00  0.00     0.066 A 
BRANCH   8  33
ATOM     33  C   UNK d   0      -4.776  25.734  -6.135  0.00  0.00     0.151 C 
BRANCH  33  34
ATOM     34  C   UNK d   0      -5.718  26.180  -7.177  0.00  0.00     0.143 C 
ATOM     35  O   UNK d   0      -6.007  25.444  -8.131  0.00  0.00    -0.650 OA
BRANCH  34  36
ATOM     36  O   UNK d   0      -6.283  27.431  -7.086  0.00  0.00    -0.776 OA
ATOM     37  H   UNK d   0      -6.179  28.004  -6.238  0.00  0.00     0.167 HD
ENDBRANCH  34  36
ENDBRANCH  33  34
ENDBRANCH   8  33
BRANCH  31  38
ATOM     38  C   UNK d   0      -9.463  20.717  -2.811  0.00  0.00     0.151 C 
BRANCH  38  39
ATOM     39  C   UNK d   0     -10.016  21.201  -4.058  0.00  0.00     0.143 C 
ATOM     40  O   UNK d   0      -9.942  20.551  -5.116  0.00  0.00    -0.650 OA
BRANCH  39  41
ATOM     41  O   UNK d   0     -10.658  22.439  -4.090  0.00  0.00    -0.776 OA
ATOM     42  H   UNK d   0     -11.677  22.433  -3.985  0.00  0.00     0.167 HD
ENDBRANCH  39  41
ENDBRANCH  38  39
ENDBRANCH  31  38
BRANCH  27  43
ATOM     43  C   UNK d   0      -8.878  17.693  -2.671  0.00  0.00     0.052 C 
BRANCH  43  44
ATOM     44  C   UNK d   0      -8.302  16.340  -2.402  0.00  0.00     0.115 C 
BRANCH  44  45
ATOM     45  C   UNK d   0      -8.865  15.427  -3.430  0.00  0.00     0.139 C 
ATOM     46  O   UNK d   0     -10.026  15.655  -3.853  0.00  0.00    -0.650 OA
BRANCH  45  47
ATOM     47  O   UNK d   0      -8.167  14.353  -3.939  0.00  0.00    -0.776 OA
ATOM     48  H   UNK d   0      -8.628  13.487  -4.260  0.00  0.00     0.167 HD
ENDBRANCH  45  47
ENDBRANCH  44  45
ENDBRANCH  43  44
ENDBRANCH  27  43
BRANCH  24  49
ATOM     49  C   UNK d   0      -4.652  14.250  -3.642  0.00  0.00     0.052 C 
BRANCH  49  50
ATOM     50  C   UNK d   0      -4.345  14.358  -2.171  0.00  0.00     0.115 C 
BRANCH  50  51
ATOM     51  C   UNK d   0      -2.942  14.457  -1.790  0.00  0.00     0.139 C 
ATOM     52  O   UNK d   0      -2.435  15.513  -1.343  0.00  0.00    -0.650 OA
BRANCH  51  53
ATOM     53  O   UNK d   0      -2.116  13.352  -1.922  0.00  0.00    -0.776 OA
ATOM     54  H   UNK d   0      -1.155  13.504  -2.176  0.00  0.00     0.167 HD
ENDBRANCH  51  53
ENDBRANCH  50  51
ENDBRANCH  49  50
ENDBRANCH  24  49
BRANCH  21  55
ATOM     55  C   UNK d   0      -2.649  14.618  -5.965  0.00  0.00     0.151 C 
BRANCH  55  56
ATOM     56  C   UNK d   0      -1.652  14.061  -5.038  0.00  0.00     0.143 C 
ATOM     57  O   UNK d   0      -0.756  14.752  -4.514  0.00  0.00    -0.650 OA
BRANCH  56  58
ATOM     58  O   UNK d   0      -1.728  12.700  -4.744  0.00  0.00    -0.776 OA
ATOM     59  H   UNK d   0      -2.683  12.300  -4.776  0.00  0.00     0.167 HD
ENDBRANCH  56  58
ENDBRANCH  55  56
ENDBRANCH  21  55
BRANCH  18  60
ATOM     60  C   UNK d   0      -0.229  19.244  -7.215  0.00  0.00     0.151 C 
BRANCH  60  61
ATOM     61  C   UNK d   0       0.203  18.827  -5.872  0.00  0.00     0.143 C 
ATOM     62  O   UNK d   0       0.400  19.552  -4.897  0.00  0.00    -0.650 OA
BRANCH  61  63
ATOM     63  O   UNK d   0       0.408  17.435  -5.710  0.00  0.00    -0.776 OA
ATOM     64  H   UNK d   0       1.282  17.077  -5.368  0.00  0.00     0.167 HD
ENDBRANCH  61  63
ENDBRANCH  60  61
ENDBRANCH  18  60
BRANCH  14  65
ATOM     65  C   UNK d   0      -0.828  22.207  -7.481  0.00  0.00     0.052 C 
BRANCH  65  66
ATOM     66  C   UNK d   0      -0.079  22.729  -6.306  0.00  0.00     0.115 C 
BRANCH  66  67
ATOM     67  C   UNK d   0      -0.757  22.907  -5.053  0.00  0.00     0.139 C 
ATOM     68  O   UNK d   0      -1.247  24.064  -4.779  0.00  0.00    -0.650 OA
BRANCH  67  69
ATOM     69  O   UNK d   0      -0.963  21.958  -4.052  0.00  0.00    -0.776 OA
ATOM     70  H   UNK d   0      -1.453  21.100  -4.343  0.00  0.00     0.167 HD
ENDBRANCH  67  69
ENDBRANCH  66  67
ENDBRANCH  65  66
ENDBRANCH  14  65
ENDBRANCH   6   7
ENDBRANCH   5   6
ENDBRANCH   2   5
TORSDOF 28
ENDMDL
MODEL 19
REMARK VINA RESULT:      -7.2     30.195     34.264
REMARK  28 active torsions:
REMARK  status: ('A' for Active; 'I' for Inactive)
REMARK    1  A    between atoms: C_2  and  O_3 
REMARK    2  A    between atoms: C_2  and  C_4 
REMARK    3  A    between atoms: C_4  and  C_5 
REMARK    4  A    between atoms: C_5  and  C_6 
REMARK    5  A    between atoms: C_7  and  C_8 
REMARK    6  A    between atoms: C_8  and  C_9 
REMARK    7  A    between atoms: C_9  and  O_11 
REMARK    8  A    between atoms: C_28  and  C_29 
REMARK    9  A    between atoms: C_29  and  C_30 
REMARK   10  A    between atoms: C_30  and  O_32 
REMARK   11  A    between atoms: C_33  and  C_34 
REMARK   12  A    between atoms: C_34  and  C_35 
REMARK   13  A    between atoms: C_35  and  C_36 
REMARK   14  A    between atoms: C_36  and  O_38 
REMARK   15  A    between atoms: C_39  and  C_40 
REMARK   16  A    between atoms: C_40  and  C_41 
REMARK   17  A    between atoms: C_41  and  C_42 
REMARK   18  A    between atoms: C_42  and  O_44 
REMARK   19  A    between atoms: C_45  and  C_46 
REMARK   20  A    between atoms: C_46  and  C_47 
REMARK   21  A    between atoms: C_47  and  O_49 
REMARK   22  A    between atoms: C_50  and  C_51 
REMARK   23  A    between atoms: C_51  and  C_52 
REMARK   24  A    between atoms: C_52  and  O_54 
REMARK   25  A    between atoms: C_55  and  C_56 
REMARK   26  A    between atoms: C_56  and  C_57 
REMARK   27  A    between atoms: C_57  and  C_58 
REMARK   28  A    between atoms: C_58  and  O_60 
ROOT
ATOM      1  O   UNK d   0       0.264  15.742  -8.291  0.00  0.00    -0.650 OA
ATOM      2  C   UNK d   0      -0.672  15.650  -7.466  0.00  0.00     0.139 C 
ENDROOT
BRANCH   2   3
ATOM      3  O   UNK d   0      -1.860  16.293  -7.719  0.00  0.00    -0.776 OA
ATOM      4  H   UNK d   0      -2.218  16.383  -8.672  0.00  0.00     0.167 HD
ENDBRANCH   2   3
BRANCH   2   5
ATOM      5  C   UNK d   0      -0.496  14.849  -6.221  0.00  0.00     0.115 C 
BRANCH   5   6
ATOM      6  C   UNK d   0       0.399  15.581  -5.258  0.00  0.00     0.052 C 
BRANCH   6   7
ATOM      7  C   UNK d   0      -0.151  16.932  -4.866  0.00  0.00    -0.020 A 
ATOM      8  C   UNK d   0       0.502  18.062  -4.771  0.00  0.00    -0.011 A 
ATOM      9  C   UNK d   0      -0.441  19.086  -4.354  0.00  0.00     0.067 A 
ATOM     10  C   UNK d   0      -0.391  20.466  -4.099  0.00  0.00     0.062 C 
ATOM     11  N   UNK d   0      -1.644  18.490  -4.212  0.00  0.00    -0.248 NA
ATOM     12  C   UNK d   0      -1.472  21.344  -3.974  0.00  0.00     0.041 A 
ATOM     13  N   UNK d   0      -2.651  21.214  -3.336  0.00  0.00    -0.355 N 
ATOM     14  C   UNK d   0      -1.425  22.581  -4.643  0.00  0.00    -0.022 A 
ATOM     15  C   UNK d   0      -3.357  22.332  -3.590  0.00  0.00     0.042 A 
ATOM     16  H   UNK d   0      -2.970  20.357  -2.703  0.00  0.00     0.166 HD
ATOM     17  C   UNK d   0      -4.646  22.713  -3.170  0.00  0.00     0.062 C 
ATOM     18  C   UNK d   0      -2.621  23.212  -4.407  0.00  0.00    -0.013 A 
ATOM     19  C   UNK d   0      -5.799  21.971  -3.141  0.00  0.00     0.067 A 
ATOM     20  N   UNK d   0      -5.677  20.657  -3.347  0.00  0.00    -0.248 NA
ATOM     21  C   UNK d   0      -7.213  22.244  -2.949  0.00  0.00    -0.011 A 
ATOM     22  C   UNK d   0      -6.909  20.052  -3.304  0.00  0.00     0.066 A 
ATOM     23  C   UNK d   0      -6.925  18.674  -3.466  0.00  0.00     0.062 C 
ATOM     24  C   UNK d   0      -7.858  21.118  -3.050  0.00  0.00    -0.020 A 
ATOM     25  C   UNK d   0      -5.826  17.808  -3.577  0.00  0.00     0.041 A 
ATOM     26  N   UNK d   0      -4.661  17.932  -4.223  0.00  0.00    -0.355 N 
ATOM     27  C   UNK d   0      -5.872  16.569  -2.902  0.00  0.00    -0.022 A 
ATOM     28  C   UNK d   0      -3.959  16.814  -3.979  0.00  0.00     0.042 A 
ATOM     29  H   UNK d   0      -4.346  18.789  -4.868  0.00  0.00     0.166 HD
ATOM     30  C   UNK d   0      -2.679  16.417  -4.398  0.00  0.00     0.062 C 
ATOM     31  C   UNK d   0      -4.694  15.934  -3.150  0.00  0.00    -0.013 A 
ATOM     32  C   UNK d   0      -1.536  17.194  -4.506  0.00  0.00     0.066 A 
BRANCH   8  33
ATOM     33  C   UNK d   0       1.937  18.279  -5.030  0.00  0.00     0.151 C 
BRANCH  33  34
ATOM     34  C   UNK d   0       2.260  18.304  -6.468  0.00  0.00     0.143 C 
ATOM     35  O   UNK d   0       1.390  18.565  -7.312  0.00  0.00    -0.650 OA
BRANCH  34  36
ATOM     36  O   UNK d   0       3.545  18.032  -6.877  0.00  0.00    -0.776 OA
ATOM     37  H   UNK d   0       4.224  17.589  -6.244  0.00  0.00     0.167 HD
ENDBRANCH  34  36
ENDBRANCH  33  34
ENDBRANCH   8  33
BRANCH  31  38
ATOM     38  C   UNK d   0      -4.284  14.579  -2.622  0.00  0.00     0.151 C 
BRANCH  38  39
ATOM     39  C   UNK d   0      -3.610  14.655  -1.343  0.00  0.00     0.143 C 
ATOM     40  O   UNK d   0      -2.374  14.745  -1.246  0.00  0.00    -0.650 OA
BRANCH  39  41
ATOM     41  O   UNK d   0      -4.362  14.629  -0.169  0.00  0.00    -0.776 OA
ATOM     42  H   UNK d   0      -4.620  15.535   0.235  0.00  0.00     0.167 HD
ENDBRANCH  39  41
ENDBRANCH  38  39
ENDBRANCH  31  38
BRANCH  27  43
ATOM     43  C   UNK d   0      -6.971  15.981  -2.051  0.00  0.00     0.052 C 
BRANCH  43  44
ATOM     44  C   UNK d   0      -7.404  14.624  -2.501  0.00  0.00     0.115 C 
BRANCH  44  45
ATOM     45  C   UNK d   0      -8.122  14.812  -3.788  0.00  0.00     0.139 C 
ATOM     46  O   UNK d   0      -9.257  15.348  -3.759  0.00  0.00    -0.650 OA
BRANCH  45  47
ATOM     47  O   UNK d   0      -7.593  14.430  -5.002  0.00  0.00    -0.776 OA
ATOM     48  H   UNK d   0      -7.185  13.495  -5.166  0.00  0.00     0.167 HD
ENDBRANCH  45  47
ENDBRANCH  44  45
ENDBRANCH  43  44
ENDBRANCH  27  43
BRANCH  24  49
ATOM     49  C   UNK d   0      -9.310  20.930  -2.885  0.00  0.00     0.052 C 
BRANCH  49  50
ATOM     50  C   UNK d   0      -9.929  20.466  -4.178  0.00  0.00     0.115 C 
BRANCH  50  51
ATOM     51  C   UNK d   0     -10.184  21.478  -5.194  0.00  0.00     0.139 C 
ATOM     52  O   UNK d   0     -11.259  22.121  -5.254  0.00  0.00    -0.650 OA
BRANCH  51  53
ATOM     53  O   UNK d   0      -9.213  21.757  -6.144  0.00  0.00    -0.776 OA
ATOM     54  H   UNK d   0      -9.142  22.697  -6.490  0.00  0.00     0.167 HD
ENDBRANCH  51  53
ENDBRANCH  50  51
ENDBRANCH  49  50
ENDBRANCH  24  49
BRANCH  21  55
ATOM     55  C   UNK d   0      -7.772  23.602  -2.681  0.00  0.00     0.151 C 
BRANCH  55  56
ATOM     56  C   UNK d   0      -8.214  24.271  -3.914  0.00  0.00     0.143 C 
ATOM     57  O   UNK d   0      -7.750  23.991  -5.037  0.00  0.00    -0.650 OA
BRANCH  56  58
ATOM     58  O   UNK d   0      -9.194  25.256  -3.803  0.00  0.00    -0.776 OA
ATOM     59  H   UNK d   0      -8.858  26.224  -3.949  0.00  0.00     0.167 HD
ENDBRANCH  56  58
ENDBRANCH  55  56
ENDBRANCH  21  55
BRANCH  18  60
ATOM     60  C   UNK d   0      -3.003  24.569  -4.945  0.00  0.00     0.151 C 
BRANCH  60  61
ATOM     61  C   UNK d   0      -3.809  24.313  -6.149  0.00  0.00     0.143 C 
ATOM     62  O   UNK d   0      -3.399  23.966  -7.257  0.00  0.00    -0.650 OA
BRANCH  61  63
ATOM     63  O   UNK d   0      -5.204  24.492  -5.989  0.00  0.00    -0.776 OA
ATOM     64  H   UNK d   0      -5.814  24.548  -6.785  0.00  0.00     0.167 HD
ENDBRANCH  61  63
ENDBRANCH  60  61
ENDBRANCH  18  60
BRANCH  14  65
ATOM     65  C   UNK d   0      -0.310  23.245  -5.399  0.00  0.00     0.052 C 
BRANCH  65  66
ATOM     66  C   UNK d   0      -0.298  22.895  -6.845  0.00  0.00     0.115 C 
BRANCH  66  67
ATOM     67  C   UNK d   0       0.634  21.918  -7.333  0.00  0.00     0.139 C 
ATOM     68  O   UNK d   0       1.787  21.835  -6.770  0.00  0.00    -0.650 OA
BRANCH  67  69
ATOM     69  O   UNK d   0       0.450  21.011  -8.375  0.00  0.00    -0.776 OA
ATOM     70  H   UNK d   0       0.567  21.391  -9.326  0.00  0.00     0.167 HD
ENDBRANCH  67  69
ENDBRANCH  66  67
ENDBRANCH  65  66
ENDBRANCH  14  65
ENDBRANCH   6   7
ENDBRANCH   5   6
ENDBRANCH   2   5
TORSDOF 28
ENDMDL
MODEL 20
REMARK VINA RESULT:      -7.0      1.947      8.398
REMARK  28 active torsions:
REMARK  status: ('A' for Active; 'I' for Inactive)
REMARK    1  A    between atoms: C_2  and  O_3 
REMARK    2  A    between atoms: C_2  and  C_4 
REMARK    3  A    between atoms: C_4  and  C_5 
REMARK    4  A    between atoms: C_5  and  C_6 
REMARK    5  A    between atoms: C_7  and  C_8 
REMARK    6  A    between atoms: C_8  and  C_9 
REMARK    7  A    between atoms: C_9  and  O_11 
REMARK    8  A    between atoms: C_28  and  C_29 
REMARK    9  A    between atoms: C_29  and  C_30 
REMARK   10  A    between atoms: C_30  and  O_32 
REMARK   11  A    between atoms: C_33  and  C_34 
REMARK   12  A    between atoms: C_34  and  C_35 
REMARK   13  A    between atoms: C_35  and  C_36 
REMARK   14  A    between atoms: C_36  and  O_38 
REMARK   15  A    between atoms: C_39  and  C_40 
REMARK   16  A    between atoms: C_40  and  C_41 
REMARK   17  A    between atoms: C_41  and  C_42 
REMARK   18  A    between atoms: C_42  and  O_44 
REMARK   19  A    between atoms: C_45  and  C_46 
REMARK   20  A    between atoms: C_46  and  C_47 
REMARK   21  A    between atoms: C_47  and  O_49 
REMARK   22  A    between atoms: C_50  and  C_51 
REMARK   23  A    between atoms: C_51  and  C_52 
REMARK   24  A    between atoms: C_52  and  O_54 
REMARK   25  A    between atoms: C_55  and  C_56 
REMARK   26  A    between atoms: C_56  and  C_57 
REMARK   27  A    between atoms: C_57  and  C_58 
REMARK   28  A    between atoms: C_58  and  O_60 
ROOT
ATOM      1  O   UNK d   0      -9.335  12.451 -35.005  0.00  0.00    -0.650 OA
ATOM      2  C   UNK d   0      -8.940  11.820 -36.011  0.00  0.00     0.139 C 
ENDROOT
BRANCH   2   3
ATOM      3  O   UNK d   0      -9.859  11.374 -36.930  0.00  0.00    -0.776 OA
ATOM      4  H   UNK d   0     -10.194  11.984 -37.680  0.00  0.00     0.167 HD
ENDBRANCH   2   3
BRANCH   2   5
ATOM      5  C   UNK d   0      -7.486  11.555 -36.205  0.00  0.00     0.115 C 
BRANCH   5   6
ATOM      6  C   UNK d   0      -7.291  10.444 -37.201  0.00  0.00     0.052 C 
BRANCH   6   7
ATOM      7  C   UNK d   0      -6.811   9.165 -36.557  0.00  0.00    -0.020 A 
ATOM      8  C   UNK d   0      -7.537   8.162 -36.137  0.00  0.00    -0.011 A 
ATOM      9  C   UNK d   0      -6.638   7.163 -35.584  0.00  0.00     0.067 A 
ATOM     10  C   UNK d   0      -6.770   5.889 -35.008  0.00  0.00     0.062 C 
ATOM     11  N   UNK d   0      -5.383   7.643 -35.704  0.00  0.00    -0.248 NA
ATOM     12  C   UNK d   0      -5.757   4.951 -34.785  0.00  0.00     0.041 A 
ATOM     13  N   UNK d   0      -4.503   5.095 -34.314  0.00  0.00    -0.355 N 
ATOM     14  C   UNK d   0      -5.984   3.608 -35.137  0.00  0.00    -0.022 A 
ATOM     15  C   UNK d   0      -3.927   3.879 -34.365  0.00  0.00     0.042 A 
ATOM     16  H   UNK d   0      -4.042   6.033 -33.934  0.00  0.00     0.166 HD
ATOM     17  C   UNK d   0      -2.632   3.466 -33.994  0.00  0.00     0.062 C 
ATOM     18  C   UNK d   0      -4.824   2.921 -34.876  0.00  0.00    -0.013 A 
ATOM     19  C   UNK d   0      -1.427   4.068 -34.253  0.00  0.00     0.067 A 
ATOM     20  N   UNK d   0      -1.465   5.308 -34.749  0.00  0.00    -0.248 NA
ATOM     21  C   UNK d   0      -0.027   3.695 -34.141  0.00  0.00    -0.011 A 
ATOM     22  C   UNK d   0      -0.191   5.772 -34.970  0.00  0.00     0.066 A 
ATOM     23  C   UNK d   0      -0.082   7.068 -35.452  0.00  0.00     0.062 C 
ATOM     24  C   UNK d   0       0.691   4.695 -34.566  0.00  0.00    -0.020 A 
ATOM     25  C   UNK d   0      -1.112   7.999 -35.657  0.00  0.00     0.041 A 
ATOM     26  N   UNK d   0      -2.353   7.859 -36.139  0.00  0.00    -0.355 N 
ATOM     27  C   UNK d   0      -0.885   9.346 -35.299  0.00  0.00    -0.022 A 
ATOM     28  C   UNK d   0      -2.927   9.071 -36.097  0.00  0.00     0.042 A 
ATOM     29  H   UNK d   0      -2.811   6.917 -36.530  0.00  0.00     0.166 HD
ATOM     30  C   UNK d   0      -4.211   9.498 -36.472  0.00  0.00     0.062 C 
ATOM     31  C   UNK d   0      -2.029  10.031 -35.574  0.00  0.00    -0.013 A 
ATOM     32  C   UNK d   0      -5.418   8.844 -36.283  0.00  0.00     0.066 A 
BRANCH   8  33
ATOM     33  C   UNK d   0      -9.006   8.046 -36.197  0.00  0.00     0.151 C 
BRANCH  33  34
ATOM     34  C   UNK d   0      -9.511   7.899 -37.574  0.00  0.00     0.143 C 
ATOM     35  O   UNK d   0      -8.992   7.094 -38.360  0.00  0.00    -0.650 OA
BRANCH  34  36
ATOM     36  O   UNK d   0     -10.572   8.670 -37.990  0.00  0.00    -0.776 OA
ATOM     37  H   UNK d   0     -11.203   9.121 -37.313  0.00  0.00     0.167 HD
ENDBRANCH  34  36
ENDBRANCH  33  34
ENDBRANCH   8  33
BRANCH  31  38
ATOM     38  C   UNK d   0      -2.261  11.506 -35.342  0.00  0.00     0.151 C 
BRANCH  38  39
ATOM     39  C   UNK d   0      -1.824  12.325 -36.453  0.00  0.00     0.143 C 
ATOM     40  O   UNK d   0      -1.962  11.969 -37.636  0.00  0.00    -0.650 OA
BRANCH  39  41
ATOM     41  O   UNK d   0      -1.226  13.560 -36.201  0.00  0.00    -0.776 OA
ATOM     42  H   UNK d   0      -0.531  13.883 -36.881  0.00  0.00     0.167 HD
ENDBRANCH  39  41
ENDBRANCH  38  39
ENDBRANCH  31  38
BRANCH  27  43
ATOM     43  C   UNK d   0       0.351   9.989 -34.722  0.00  0.00     0.052 C 
BRANCH  43  44
ATOM     44  C   UNK d   0       0.534   9.713 -33.265  0.00  0.00     0.115 C 
BRANCH  44  45
ATOM     45  C   UNK d   0       1.937   9.253 -33.093  0.00  0.00     0.139 C 
ATOM     46  O   UNK d   0       2.819  10.116 -32.863  0.00  0.00    -0.650 OA
BRANCH  45  47
ATOM     47  O   UNK d   0       2.302   7.926 -33.170  0.00  0.00    -0.776 OA
ATOM     48  H   UNK d   0       1.935   7.285 -33.892  0.00  0.00     0.167 HD
ENDBRANCH  45  47
ENDBRANCH  44  45
ENDBRANCH  43  44
ENDBRANCH  27  43
BRANCH  24  49
ATOM     49  C   UNK d   0       2.162   4.758 -34.591  0.00  0.00     0.052 C 
BRANCH  49  50
ATOM     50  C   UNK d   0       2.649   5.106 -35.975  0.00  0.00     0.115 C 
BRANCH  50  51
ATOM     51  C   UNK d   0       3.610   6.194 -36.088  0.00  0.00     0.139 C 
ATOM     52  O   UNK d   0       3.297   7.331 -36.516  0.00  0.00    -0.650 OA
BRANCH  51  53
ATOM     53  O   UNK d   0       4.929   5.987 -35.715  0.00  0.00    -0.776 OA
ATOM     54  H   UNK d   0       5.564   5.616 -36.400  0.00  0.00     0.167 HD
ENDBRANCH  51  53
ENDBRANCH  50  51
ENDBRANCH  49  50
ENDBRANCH  24  49
BRANCH  21  55
ATOM     55  C   UNK d   0       0.448   2.381 -33.616  0.00  0.00     0.151 C 
BRANCH  55  56
ATOM     56  C   UNK d   0       0.060   1.265 -34.492  0.00  0.00     0.143 C 
ATOM     57  O   UNK d   0       0.212   1.294 -35.729  0.00  0.00    -0.650 OA
BRANCH  56  58
ATOM     58  O   UNK d   0      -0.499   0.135 -33.896  0.00  0.00    -0.776 OA
ATOM     59  H   UNK d   0      -1.345  -0.233 -34.367  0.00  0.00     0.167 HD
ENDBRANCH  56  58
ENDBRANCH  55  56
ENDBRANCH  21  55
BRANCH  18  60
ATOM     60  C   UNK d   0      -4.621   1.445 -35.115  0.00  0.00     0.151 C 
BRANCH  60  61
ATOM     61  C   UNK d   0      -3.717   1.344 -36.271  0.00  0.00     0.143 C 
ATOM     62  O   UNK d   0      -3.786   1.978 -37.324  0.00  0.00    -0.650 OA
BRANCH  61  63
ATOM     63  O   UNK d   0      -2.663   0.410 -36.132  0.00  0.00    -0.776 OA
ATOM     64  H   UNK d   0      -2.645  -0.241 -35.366  0.00  0.00     0.167 HD
ENDBRANCH  61  63
ENDBRANCH  60  61
ENDBRANCH  18  60
BRANCH  14  65
ATOM     65  C   UNK d   0      -7.231   2.913 -35.603  0.00  0.00     0.052 C 
BRANCH  65  66
ATOM     66  C   UNK d   0      -7.436   3.009 -37.074  0.00  0.00     0.115 C 
BRANCH  66  67
ATOM     67  C   UNK d   0      -7.028   1.925 -37.921  0.00  0.00     0.139 C 
ATOM     68  O   UNK d   0      -7.363   0.728 -37.591  0.00  0.00    -0.650 OA
BRANCH  67  69
ATOM     69  O   UNK d   0      -6.287   1.995 -39.101  0.00  0.00    -0.776 OA
ATOM     70  H   UNK d   0      -6.831   1.957 -39.974  0.00  0.00     0.167 HD
ENDBRANCH  67  69
ENDBRANCH  66  67
ENDBRANCH  65  66
ENDBRANCH  14  65
ENDBRANCH   6   7
ENDBRANCH   5   6
ENDBRANCH   2   5
TORSDOF 28
ENDMDL
