MODEL 1
REMARK VINA RESULT:      -8.5      0.000      0.000
REMARK  16 active torsions:
REMARK  status: ('A' for Active; 'I' for Inactive)
REMARK    1  A    between atoms: C_6  and  C_7 
REMARK    2  A    between atoms: C_7  and  C_8 
REMARK    3  A    between atoms: C_8  and  C_9 
REMARK    4  A    between atoms: C_9  and  O_11 
REMARK    5  A    between atoms: C_16  and  C_17 
REMARK    6  A    between atoms: C_17  and  C_18 
REMARK    7  A    between atoms: C_18  and  C_19 
REMARK    8  A    between atoms: C_19  and  O_21 
REMARK    9  A    between atoms: C_28  and  C_29 
REMARK   10  A    between atoms: C_29  and  C_30 
REMARK   11  A    between atoms: C_30  and  C_31 
REMARK   12  A    between atoms: C_31  and  O_33 
REMARK   13  A    between atoms: C_42  and  C_43 
REMARK   14  A    between atoms: C_43  and  C_44 
REMARK   15  A    between atoms: C_44  and  C_45 
REMARK   16  A    between atoms: C_45  and  O_47 
ROOT
HETATM    1  C   UNK     0     -41.899  20.697  -3.407  0.00  0.00     0.051 C 
HETATM    2  C   UNK     0     -41.605  19.604  -2.400  0.00  0.00    -0.031 A 
HETATM    3  C   UNK     0     -40.558  18.696  -2.367  0.00  0.00     0.021 A 
HETATM    4  N   UNK     0     -40.715  17.880  -1.298  0.00  0.00    -0.361 N 
HETATM    5  C   UNK     0     -41.835  18.253  -0.644  0.00  0.00     0.022 A 
HETATM    6  C   UNK     0     -42.418  19.327  -1.308  0.00  0.00    -0.027 A 
HETATM    7  C   UNK     0     -42.402  17.739   0.643  0.00  0.00     0.115 C 
HETATM    8  C   UNK     0     -41.415  17.482   1.768  0.00  0.00     0.021 A 
HETATM    9  N   UNK     0     -40.305  18.169   2.080  0.00  0.00    -0.361 N 
HETATM   10  C   UNK     0     -39.687  17.529   3.095  0.00  0.00     0.022 A 
HETATM   11  C   UNK     0     -40.424  16.404   3.453  0.00  0.00    -0.027 A 
HETATM   12  C   UNK     0     -41.514  16.369   2.621  0.00  0.00    -0.031 A 
HETATM   13  C   UNK     0     -42.601  15.318   2.649  0.00  0.00     0.051 C 
HETATM   14  C   UNK     0     -38.355  17.920   3.730  0.00  0.00     0.115 C 
HETATM   15  C   UNK     0     -37.184  17.907   2.761  0.00  0.00     0.021 A 
HETATM   16  N   UNK     0     -37.051  18.613   1.623  0.00  0.00    -0.361 N 
HETATM   17  C   UNK     0     -35.910  18.267   1.023  0.00  0.00     0.022 A 
HETATM   18  C   UNK     0     -35.264  17.295   1.813  0.00  0.00    -0.027 A 
HETATM   19  C   UNK     0     -36.072  17.079   2.899  0.00  0.00    -0.031 A 
HETATM   20  C   UNK     0     -35.730  16.124   4.028  0.00  0.00     0.051 C 
HETATM   21  C   UNK     0     -35.336  18.711  -0.303  0.00  0.00     0.115 C 
HETATM   22  C   UNK     0     -36.309  19.012  -1.419  0.00  0.00     0.022 A 
HETATM   23  N   UNK     0     -37.424  18.348  -1.750  0.00  0.00    -0.361 N 
HETATM   24  C   UNK     0     -38.063  19.046  -2.710  0.00  0.00     0.021 A 
HETATM   25  C   UNK     0     -37.337  20.182  -3.012  0.00  0.00    -0.031 A 
HETATM   26  C   UNK     0     -37.624  21.250  -4.046  0.00  0.00     0.051 C 
HETATM   27  C   UNK     0     -36.209  20.182  -2.199  0.00  0.00    -0.027 A 
HETATM   28  C   UNK     0     -39.412  18.742  -3.338  0.00  0.00     0.115 C 
HETATM   29  H   UNK     0     -40.056  17.020  -1.035  0.00  0.00     0.165 HD
HETATM   30  H   UNK     0     -39.980  19.134   1.618  0.00  0.00     0.165 HD
HETATM   31  H   UNK     0     -37.752  19.408   1.259  0.00  0.00     0.165 HD
HETATM   32  H   UNK     0     -37.749  17.357  -1.338  0.00  0.00     0.165 HD
ENDROOT
BRANCH   6  33
HETATM   33  C   UNK     0     -43.673  20.099  -0.989  0.00  0.00     0.051 C 
BRANCH  33  34
HETATM   34  C   UNK     0     -44.827  19.617  -1.837  0.00  0.00     0.114 C 
BRANCH  34  35
HETATM   35  C   UNK     0     -45.586  18.618  -1.032  0.00  0.00     0.139 C 
HETATM   36  O   UNK     0     -46.114  17.615  -1.595  0.00  0.00    -0.650 OA
BRANCH  35  37
HETATM   37  O   UNK     0     -45.747  18.730   0.344  0.00  0.00    -0.776 OA
HETATM   38  H   UNK     0     -46.647  18.636   0.786  0.00  0.00     0.167 HD
ENDBRANCH  35  37
ENDBRANCH  34  35
ENDBRANCH  33  34
ENDBRANCH   6  33
BRANCH  27  39
HETATM   39  C   UNK     0     -35.146  21.219  -2.288  0.00  0.00     0.051 C 
BRANCH  39  40
HETATM   40  C   UNK     0     -33.801  20.802  -2.684  0.00  0.00     0.114 C 
BRANCH  40  41
HETATM   41  C   UNK     0     -33.574  19.729  -3.627  0.00  0.00     0.139 C 
HETATM   42  O   UNK     0     -33.513  18.536  -3.302  0.00  0.00    -0.650 OA
BRANCH  41  43
HETATM   43  O   UNK     0     -33.408  20.044  -5.005  0.00  0.00    -0.776 OA
HETATM   44  H   UNK     0     -32.447  20.028  -5.327  0.00  0.00     0.167 HD
ENDBRANCH  41  43
ENDBRANCH  40  41
ENDBRANCH  39  40
ENDBRANCH  27  39
BRANCH  11  45
HETATM   45  C   UNK     0     -40.136  15.393   4.531  0.00  0.00     0.051 C 
BRANCH  45  46
HETATM   46  C   UNK     0     -39.513  14.139   4.035  0.00  0.00     0.114 C 
BRANCH  46  47
HETATM   47  C   UNK     0     -39.912  13.049   4.970  0.00  0.00     0.139 C 
HETATM   48  O   UNK     0     -39.522  11.896   4.735  0.00  0.00    -0.650 OA
BRANCH  47  49
HETATM   49  O   UNK     0     -40.694  13.313   6.066  0.00  0.00    -0.776 OA
HETATM   50  H   UNK     0     -41.206  14.197   6.169  0.00  0.00     0.167 HD
ENDBRANCH  47  49
ENDBRANCH  46  47
ENDBRANCH  45  46
ENDBRANCH  11  45
BRANCH  18  51
HETATM   51  C   UNK     0     -33.939  16.624   1.556  0.00  0.00     0.051 C 
BRANCH  51  52
HETATM   52  C   UNK     0     -34.255  15.312   0.853  0.00  0.00     0.114 C 
BRANCH  52  53
HETATM   53  C   UNK     0     -33.475  14.189   1.407  0.00  0.00     0.139 C 
HETATM   54  O   UNK     0     -33.845  13.020   1.214  0.00  0.00    -0.650 OA
BRANCH  53  55
HETATM   55  O   UNK     0     -32.342  14.446   2.141  0.00  0.00    -0.776 OA
HETATM   56  H   UNK     0     -31.406  14.329   1.830  0.00  0.00     0.167 HD
ENDBRANCH  53  55
ENDBRANCH  52  53
ENDBRANCH  51  52
ENDBRANCH  18  51
TORSDOF 16
ENDMDL
MODEL 2
REMARK VINA RESULT:      -8.0      1.479      1.616
REMARK  16 active torsions:
REMARK  status: ('A' for Active; 'I' for Inactive)
REMARK    1  A    between atoms: C_6  and  C_7 
REMARK    2  A    between atoms: C_7  and  C_8 
REMARK    3  A    between atoms: C_8  and  C_9 
REMARK    4  A    between atoms: C_9  and  O_11 
REMARK    5  A    between atoms: C_16  and  C_17 
REMARK    6  A    between atoms: C_17  and  C_18 
REMARK    7  A    between atoms: C_18  and  C_19 
REMARK    8  A    between atoms: C_19  and  O_21 
REMARK    9  A    between atoms: C_28  and  C_29 
REMARK   10  A    between atoms: C_29  and  C_30 
REMARK   11  A    between atoms: C_30  and  C_31 
REMARK   12  A    between atoms: C_31  and  O_33 
REMARK   13  A    between atoms: C_42  and  C_43 
REMARK   14  A    between atoms: C_43  and  C_44 
REMARK   15  A    between atoms: C_44  and  C_45 
REMARK   16  A    between atoms: C_45  and  O_47 
ROOT
HETATM    1  C   UNK     0     -40.376  21.078  -3.597  0.00  0.00     0.051 C 
HETATM    2  C   UNK     0     -40.314  19.951  -2.587  0.00  0.00    -0.031 A 
HETATM    3  C   UNK     0     -39.422  18.893  -2.502  0.00  0.00     0.021 A 
HETATM    4  N   UNK     0     -39.766  18.109  -1.454  0.00  0.00    -0.361 N 
HETATM    5  C   UNK     0     -40.852  18.648  -0.863  0.00  0.00     0.022 A 
HETATM    6  C   UNK     0     -41.223  19.800  -1.548  0.00  0.00    -0.027 A 
HETATM    7  C   UNK     0     -41.567  18.225   0.382  0.00  0.00     0.115 C 
HETATM    8  C   UNK     0     -40.700  17.817   1.561  0.00  0.00     0.021 A 
HETATM    9  N   UNK     0     -39.519  18.325   1.945  0.00  0.00    -0.361 N 
HETATM   10  C   UNK     0     -39.069  17.596   2.988  0.00  0.00     0.022 A 
HETATM   11  C   UNK     0     -39.990  16.597   3.290  0.00  0.00    -0.027 A 
HETATM   12  C   UNK     0     -41.020  16.731   2.395  0.00  0.00    -0.031 A 
HETATM   13  C   UNK     0     -42.255  15.859   2.346  0.00  0.00     0.051 C 
HETATM   14  C   UNK     0     -37.734  17.777   3.705  0.00  0.00     0.115 C 
HETATM   15  C   UNK     0     -36.522  17.586   2.807  0.00  0.00     0.021 A 
HETATM   16  N   UNK     0     -36.214  18.266   1.687  0.00  0.00    -0.361 N 
HETATM   17  C   UNK     0     -35.106  17.749   1.151  0.00  0.00     0.022 A 
HETATM   18  C   UNK     0     -34.665  16.688   1.967  0.00  0.00    -0.027 A 
HETATM   19  C   UNK     0     -35.560  16.597   3.001  0.00  0.00    -0.031 A 
HETATM   20  C   UNK     0     -35.437  15.599   4.138  0.00  0.00     0.051 C 
HETATM   21  C   UNK     0     -34.392  18.103  -0.134  0.00  0.00     0.115 C 
HETATM   22  C   UNK     0     -35.239  18.552  -1.301  0.00  0.00     0.022 A 
HETATM   23  N   UNK     0     -36.421  18.068  -1.705  0.00  0.00    -0.361 N 
HETATM   24  C   UNK     0     -36.887  18.857  -2.694  0.00  0.00     0.021 A 
HETATM   25  C   UNK     0     -35.978  19.868  -2.940  0.00  0.00    -0.031 A 
HETATM   26  C   UNK     0     -36.036  20.970  -3.977  0.00  0.00     0.051 C 
HETATM   27  C   UNK     0     -34.915  19.694  -2.061  0.00  0.00    -0.027 A 
HETATM   28  C   UNK     0     -38.226  18.765  -3.403  0.00  0.00     0.115 C 
HETATM   29  H   UNK     0     -39.263  17.158  -1.162  0.00  0.00     0.165 HD
HETATM   30  H   UNK     0     -39.024  19.230   1.514  0.00  0.00     0.165 HD
HETATM   31  H   UNK     0     -36.763  19.160   1.291  0.00  0.00     0.165 HD
HETATM   32  H   UNK     0     -36.917  17.137  -1.324  0.00  0.00     0.165 HD
ENDROOT
BRANCH   6  33
HETATM   33  C   UNK     0     -42.363  20.755  -1.296  0.00  0.00     0.051 C 
BRANCH  33  34
HETATM   34  C   UNK     0     -43.528  20.451  -2.208  0.00  0.00     0.114 C 
BRANCH  34  35
HETATM   35  C   UNK     0     -44.398  19.464  -1.506  0.00  0.00     0.139 C 
HETATM   36  O   UNK     0     -44.622  18.331  -2.024  0.00  0.00    -0.650 OA
BRANCH  35  37
HETATM   37  O   UNK     0     -44.992  19.728  -0.278  0.00  0.00    -0.776 OA
HETATM   38  H   UNK     0     -45.758  19.178   0.075  0.00  0.00     0.167 HD
ENDBRANCH  35  37
ENDBRANCH  34  35
ENDBRANCH  33  34
ENDBRANCH   6  33
BRANCH  27  39
HETATM   39  C   UNK     0     -33.702  20.556  -2.076  0.00  0.00     0.051 C 
BRANCH  39  40
HETATM   40  C   UNK     0     -33.526  21.525  -0.995  0.00  0.00     0.114 C 
BRANCH  40  41
HETATM   41  C   UNK     0     -32.358  21.526  -0.143  0.00  0.00     0.139 C 
HETATM   42  O   UNK     0     -32.241  20.806   0.858  0.00  0.00    -0.650 OA
BRANCH  41  43
HETATM   43  O   UNK     0     -31.274  22.395  -0.457  0.00  0.00    -0.776 OA
HETATM   44  H   UNK     0     -30.627  22.551   0.307  0.00  0.00     0.167 HD
ENDBRANCH  41  43
ENDBRANCH  40  41
ENDBRANCH  39  40
ENDBRANCH  27  39
BRANCH  11  45
HETATM   45  C   UNK     0     -39.925  15.552   4.371  0.00  0.00     0.051 C 
BRANCH  45  46
HETATM   46  C   UNK     0     -39.352  14.255   3.928  0.00  0.00     0.114 C 
BRANCH  46  47
HETATM   47  C   UNK     0     -40.008  13.185   4.732  0.00  0.00     0.139 C 
HETATM   48  O   UNK     0     -39.889  12.009   4.361  0.00  0.00    -0.650 OA
BRANCH  47  49
HETATM   49  O   UNK     0     -40.729  13.493   5.858  0.00  0.00    -0.776 OA
HETATM   50  H   UNK     0     -41.239  12.780   6.391  0.00  0.00     0.167 HD
ENDBRANCH  47  49
ENDBRANCH  46  47
ENDBRANCH  45  46
ENDBRANCH  11  45
BRANCH  18  51
HETATM   51  C   UNK     0     -33.446  15.823   1.782  0.00  0.00     0.051 C 
BRANCH  51  52
HETATM   52  C   UNK     0     -33.917  14.573   1.052  0.00  0.00     0.114 C 
BRANCH  52  53
HETATM   53  C   UNK     0     -33.374  13.344   1.661  0.00  0.00     0.139 C 
HETATM   54  O   UNK     0     -33.822  12.235   1.328  0.00  0.00    -0.650 OA
BRANCH  53  55
HETATM   55  O   UNK     0     -32.374  13.434   2.598  0.00  0.00    -0.776 OA
HETATM   56  H   UNK     0     -32.462  13.812   3.512  0.00  0.00     0.167 HD
ENDBRANCH  53  55
ENDBRANCH  52  53
ENDBRANCH  51  52
ENDBRANCH  18  51
TORSDOF 16
ENDMDL
MODEL 3
REMARK VINA RESULT:      -7.7      2.258      7.217
REMARK  16 active torsions:
REMARK  status: ('A' for Active; 'I' for Inactive)
REMARK    1  A    between atoms: C_6  and  C_7 
REMARK    2  A    between atoms: C_7  and  C_8 
REMARK    3  A    between atoms: C_8  and  C_9 
REMARK    4  A    between atoms: C_9  and  O_11 
REMARK    5  A    between atoms: C_16  and  C_17 
REMARK    6  A    between atoms: C_17  and  C_18 
REMARK    7  A    between atoms: C_18  and  C_19 
REMARK    8  A    between atoms: C_19  and  O_21 
REMARK    9  A    between atoms: C_28  and  C_29 
REMARK   10  A    between atoms: C_29  and  C_30 
REMARK   11  A    between atoms: C_30  and  C_31 
REMARK   12  A    between atoms: C_31  and  O_33 
REMARK   13  A    between atoms: C_42  and  C_43 
REMARK   14  A    between atoms: C_43  and  C_44 
REMARK   15  A    between atoms: C_44  and  C_45 
REMARK   16  A    between atoms: C_45  and  O_47 
ROOT
HETATM    1  C   UNK     0     -39.961  15.845   4.089  0.00  0.00     0.051 C 
HETATM    2  C   UNK     0     -39.948  16.933   3.034  0.00  0.00    -0.031 A 
HETATM    3  C   UNK     0     -39.004  17.920   2.800  0.00  0.00     0.021 A 
HETATM    4  N   UNK     0     -39.422  18.694   1.770  0.00  0.00    -0.361 N 
HETATM    5  C   UNK     0     -40.607  18.217   1.337  0.00  0.00     0.022 A 
HETATM    6  C   UNK     0     -40.967  17.116   2.108  0.00  0.00    -0.027 A 
HETATM    7  C   UNK     0     -41.440  18.651   0.172  0.00  0.00     0.115 C 
HETATM    8  C   UNK     0     -40.700  18.958  -1.118  0.00  0.00     0.021 A 
HETATM    9  N   UNK     0     -39.613  18.354  -1.622  0.00  0.00    -0.361 N 
HETATM   10  C   UNK     0     -39.246  19.016  -2.740  0.00  0.00     0.022 A 
HETATM   11  C   UNK     0     -40.128  20.069  -2.967  0.00  0.00    -0.027 A 
HETATM   12  C   UNK     0     -41.046  20.038  -1.949  0.00  0.00    -0.031 A 
HETATM   13  C   UNK     0     -42.204  20.998  -1.786  0.00  0.00     0.051 C 
HETATM   14  C   UNK     0     -38.026  18.717  -3.606  0.00  0.00     0.115 C 
HETATM   15  C   UNK     0     -36.702  18.848  -2.870  0.00  0.00     0.021 A 
HETATM   16  N   UNK     0     -36.305  18.183  -1.769  0.00  0.00    -0.361 N 
HETATM   17  C   UNK     0     -35.106  18.635  -1.393  0.00  0.00     0.022 A 
HETATM   18  C   UNK     0     -34.699  19.635  -2.297  0.00  0.00    -0.027 A 
HETATM   19  C   UNK     0     -35.706  19.759  -3.218  0.00  0.00    -0.031 A 
HETATM   20  C   UNK     0     -35.657  20.710  -4.400  0.00  0.00     0.051 C 
HETATM   21  C   UNK     0     -34.264  18.271  -0.191  0.00  0.00     0.115 C 
HETATM   22  C   UNK     0     -34.989  17.921   1.088  0.00  0.00     0.022 A 
HETATM   23  N   UNK     0     -36.076  18.502   1.612  0.00  0.00    -0.361 N 
HETATM   24  C   UNK     0     -36.468  17.779   2.681  0.00  0.00     0.021 A 
HETATM   25  C   UNK     0     -35.607  16.713   2.855  0.00  0.00    -0.031 A 
HETATM   26  C   UNK     0     -35.611  15.651   3.935  0.00  0.00     0.051 C 
HETATM   27  C   UNK     0     -34.651  16.783   1.848  0.00  0.00    -0.027 A 
HETATM   28  C   UNK     0     -37.700  17.990   3.543  0.00  0.00     0.115 C 
HETATM   29  H   UNK     0     -38.895  19.597   1.382  0.00  0.00     0.165 HD
HETATM   30  H   UNK     0     -39.130  17.430  -1.219  0.00  0.00     0.165 HD
HETATM   31  H   UNK     0     -36.860  17.344  -1.274  0.00  0.00     0.165 HD
HETATM   32  H   UNK     0     -36.551  19.453   1.258  0.00  0.00     0.165 HD
ENDROOT
BRANCH   6  33
HETATM   33  C   UNK     0     -42.191  16.239   2.034  0.00  0.00     0.051 C 
BRANCH  33  34
HETATM   34  C   UNK     0     -43.205  16.646   3.076  0.00  0.00     0.114 C 
BRANCH  34  35
HETATM   35  C   UNK     0     -43.905  17.861   2.568  0.00  0.00     0.139 C 
HETATM   36  O   UNK     0     -44.495  17.835   1.448  0.00  0.00    -0.650 OA
BRANCH  35  37
HETATM   37  O   UNK     0     -43.948  19.054   3.279  0.00  0.00    -0.776 OA
HETATM   38  H   UNK     0     -44.738  19.677   3.231  0.00  0.00     0.167 HD
ENDBRANCH  35  37
ENDBRANCH  34  35
ENDBRANCH  33  34
ENDBRANCH   6  33
BRANCH  27  39
HETATM   39  C   UNK     0     -33.507  15.836   1.750  0.00  0.00     0.051 C 
BRANCH  39  40
HETATM   40  C   UNK     0     -33.711  14.571   1.046  0.00  0.00     0.114 C 
BRANCH  40  41
HETATM   41  C   UNK     0     -33.295  13.303   1.603  0.00  0.00     0.139 C 
HETATM   42  O   UNK     0     -33.937  12.253   1.466  0.00  0.00    -0.650 OA
BRANCH  41  43
HETATM   43  O   UNK     0     -32.087  13.241   2.352  0.00  0.00    -0.776 OA
HETATM   44  H   UNK     0     -31.244  13.241   1.790  0.00  0.00     0.167 HD
ENDBRANCH  41  43
ENDBRANCH  40  41
ENDBRANCH  39  40
ENDBRANCH  27  39
BRANCH  11  45
HETATM   45  C   UNK     0     -40.127  21.073  -4.089  0.00  0.00     0.051 C 
BRANCH  45  46
HETATM   46  C   UNK     0     -41.057  20.742  -5.199  0.00  0.00     0.114 C 
BRANCH  46  47
HETATM   47  C   UNK     0     -40.223  20.366  -6.377  0.00  0.00     0.139 C 
HETATM   48  O   UNK     0     -39.001  20.568  -6.326  0.00  0.00    -0.650 OA
BRANCH  47  49
HETATM   49  O   UNK     0     -40.793  19.809  -7.493  0.00  0.00    -0.776 OA
HETATM   50  H   UNK     0     -41.261  20.378  -8.208  0.00  0.00     0.167 HD
ENDBRANCH  47  49
ENDBRANCH  46  47
ENDBRANCH  45  46
ENDBRANCH  11  45
BRANCH  18  51
HETATM   51  C   UNK     0     -33.410  20.416  -2.296  0.00  0.00     0.051 C 
BRANCH  51  52
HETATM   52  C   UNK     0     -33.572  21.504  -1.244  0.00  0.00     0.114 C 
BRANCH  52  53
HETATM   53  C   UNK     0     -32.371  21.631  -0.397  0.00  0.00     0.139 C 
HETATM   54  O   UNK     0     -31.764  22.713  -0.338  0.00  0.00    -0.650 OA
BRANCH  53  55
HETATM   55  O   UNK     0     -31.927  20.548   0.322  0.00  0.00    -0.776 OA
HETATM   56  H   UNK     0     -31.825  19.622  -0.022  0.00  0.00     0.167 HD
ENDBRANCH  53  55
ENDBRANCH  52  53
ENDBRANCH  51  52
ENDBRANCH  18  51
TORSDOF 16
ENDMDL
MODEL 4
REMARK VINA RESULT:      -7.6      8.900     13.948
REMARK  16 active torsions:
REMARK  status: ('A' for Active; 'I' for Inactive)
REMARK    1  A    between atoms: C_6  and  C_7 
REMARK    2  A    between atoms: C_7  and  C_8 
REMARK    3  A    between atoms: C_8  and  C_9 
REMARK    4  A    between atoms: C_9  and  O_11 
REMARK    5  A    between atoms: C_16  and  C_17 
REMARK    6  A    between atoms: C_17  and  C_18 
REMARK    7  A    between atoms: C_18  and  C_19 
REMARK    8  A    between atoms: C_19  and  O_21 
REMARK    9  A    between atoms: C_28  and  C_29 
REMARK   10  A    between atoms: C_29  and  C_30 
REMARK   11  A    between atoms: C_30  and  C_31 
REMARK   12  A    between atoms: C_31  and  O_33 
REMARK   13  A    between atoms: C_42  and  C_43 
REMARK   14  A    between atoms: C_43  and  C_44 
REMARK   15  A    between atoms: C_44  and  C_45 
REMARK   16  A    between atoms: C_45  and  O_47 
ROOT
HETATM    1  C   UNK     0     -48.920  19.767   9.380  0.00  0.00     0.051 C 
HETATM    2  C   UNK     0     -49.987  19.310   8.406  0.00  0.00    -0.031 A 
HETATM    3  C   UNK     0     -50.254  19.756   7.121  0.00  0.00     0.021 A 
HETATM    4  N   UNK     0     -51.323  19.083   6.633  0.00  0.00    -0.361 N 
HETATM    5  C   UNK     0     -51.737  18.211   7.576  0.00  0.00     0.022 A 
HETATM    6  C   UNK     0     -50.925  18.329   8.699  0.00  0.00    -0.027 A 
HETATM    7  C   UNK     0     -52.814  17.174   7.505  0.00  0.00     0.115 C 
HETATM    8  C   UNK     0     -52.894  16.361   6.225  0.00  0.00     0.021 A 
HETATM    9  N   UNK     0     -51.891  15.934   5.442  0.00  0.00    -0.361 N 
HETATM   10  C   UNK     0     -52.431  15.329   4.363  0.00  0.00     0.022 A 
HETATM   11  C   UNK     0     -53.820  15.359   4.458  0.00  0.00    -0.027 A 
HETATM   12  C   UNK     0     -54.118  16.007   5.629  0.00  0.00    -0.031 A 
HETATM   13  C   UNK     0     -55.512  16.270   6.153  0.00  0.00     0.051 C 
HETATM   14  C   UNK     0     -51.665  14.748   3.177  0.00  0.00     0.115 C 
HETATM   15  C   UNK     0     -50.834  15.772   2.420  0.00  0.00     0.021 A 
HETATM   16  N   UNK     0     -49.847  16.548   2.905  0.00  0.00    -0.361 N 
HETATM   17  C   UNK     0     -49.416  17.363   1.939  0.00  0.00     0.022 A 
HETATM   18  C   UNK     0     -50.151  17.098   0.766  0.00  0.00    -0.027 A 
HETATM   19  C   UNK     0     -51.035  16.098   1.081  0.00  0.00    -0.031 A 
HETATM   20  C   UNK     0     -52.001  15.481   0.085  0.00  0.00     0.051 C 
HETATM   21  C   UNK     0     -48.382  18.465   1.986  0.00  0.00     0.115 C 
HETATM   22  C   UNK     0     -48.262  19.253   3.269  0.00  0.00     0.022 A 
HETATM   23  N   UNK     0     -49.242  19.688   4.072  0.00  0.00    -0.361 N 
HETATM   24  C   UNK     0     -48.681  20.218   5.177  0.00  0.00     0.021 A 
HETATM   25  C   UNK     0     -47.305  20.131   5.080  0.00  0.00    -0.031 A 
HETATM   26  C   UNK     0     -46.248  20.623   6.047  0.00  0.00     0.051 C 
HETATM   27  C   UNK     0     -47.013  19.518   3.867  0.00  0.00    -0.027 A 
HETATM   28  C   UNK     0     -49.385  20.756   6.411  0.00  0.00     0.115 C 
HETATM   29  H   UNK     0     -51.801  19.256   5.642  0.00  0.00     0.165 HD
HETATM   30  H   UNK     0     -50.801  16.014   5.672  0.00  0.00     0.165 HD
HETATM   31  H   UNK     0     -49.412  16.489   3.936  0.00  0.00     0.165 HD
HETATM   32  H   UNK     0     -50.340  19.664   3.846  0.00  0.00     0.165 HD
ENDROOT
BRANCH   6  33
HETATM   33  C   UNK     0     -50.975  17.592  10.013  0.00  0.00     0.051 C 
BRANCH  33  34
HETATM   34  C   UNK     0     -50.408  16.200   9.867  0.00  0.00     0.114 C 
BRANCH  34  35
HETATM   35  C   UNK     0     -51.427  15.246  10.391  0.00  0.00     0.139 C 
HETATM   36  O   UNK     0     -51.134  14.025  10.552  0.00  0.00    -0.650 OA
BRANCH  35  37
HETATM   37  O   UNK     0     -52.718  15.637  10.724  0.00  0.00    -0.776 OA
HETATM   38  H   UNK     0     -53.021  16.595  10.655  0.00  0.00     0.167 HD
ENDBRANCH  35  37
ENDBRANCH  34  35
ENDBRANCH  33  34
ENDBRANCH   6  33
BRANCH  27  39
HETATM   39  C   UNK     0     -45.623  19.314   3.376  0.00  0.00     0.051 C 
BRANCH  39  40
HETATM   40  C   UNK     0     -45.005  18.002   3.565  0.00  0.00     0.114 C 
BRANCH  40  41
HETATM   41  C   UNK     0     -43.999  17.762   4.575  0.00  0.00     0.139 C 
HETATM   42  O   UNK     0     -42.786  17.710   4.333  0.00  0.00    -0.650 OA
BRANCH  41  43
HETATM   43  O   UNK     0     -44.408  17.573   5.926  0.00  0.00    -0.776 OA
HETATM   44  H   UNK     0     -43.896  16.853   6.422  0.00  0.00     0.167 HD
ENDBRANCH  41  43
ENDBRANCH  40  41
ENDBRANCH  39  40
ENDBRANCH  27  39
BRANCH  11  45
HETATM   45  C   UNK     0     -54.842  14.805   3.502  0.00  0.00     0.051 C 
BRANCH  45  46
HETATM   46  C   UNK     0     -55.549  13.599   4.003  0.00  0.00     0.114 C 
BRANCH  46  47
HETATM   47  C   UNK     0     -54.575  12.471   3.975  0.00  0.00     0.139 C 
HETATM   48  O   UNK     0     -54.113  12.114   2.882  0.00  0.00    -0.650 OA
BRANCH  47  49
HETATM   49  O   UNK     0     -54.197  11.840   5.134  0.00  0.00    -0.776 OA
HETATM   50  H   UNK     0     -54.635  10.965   5.446  0.00  0.00     0.167 HD
ENDBRANCH  47  49
ENDBRANCH  46  47
ENDBRANCH  45  46
ENDBRANCH  11  45
BRANCH  18  51
HETATM   51  C   UNK     0     -50.004  17.746  -0.586  0.00  0.00     0.051 C 
BRANCH  51  52
HETATM   52  C   UNK     0     -48.892  16.994  -1.301  0.00  0.00     0.114 C 
BRANCH  52  53
HETATM   53  C   UNK     0     -49.319  16.516  -2.631  0.00  0.00     0.139 C 
HETATM   54  O   UNK     0     -50.494  16.670  -2.998  0.00  0.00    -0.650 OA
BRANCH  53  55
HETATM   55  O   UNK     0     -48.409  15.900  -3.455  0.00  0.00    -0.776 OA
HETATM   56  H   UNK     0     -48.335  16.021  -4.438  0.00  0.00     0.167 HD
ENDBRANCH  53  55
ENDBRANCH  52  53
ENDBRANCH  51  52
ENDBRANCH  18  51
TORSDOF 16
ENDMDL
MODEL 5
REMARK VINA RESULT:      -7.6      2.501      5.107
REMARK  16 active torsions:
REMARK  status: ('A' for Active; 'I' for Inactive)
REMARK    1  A    between atoms: C_6  and  C_7 
REMARK    2  A    between atoms: C_7  and  C_8 
REMARK    3  A    between atoms: C_8  and  C_9 
REMARK    4  A    between atoms: C_9  and  O_11 
REMARK    5  A    between atoms: C_16  and  C_17 
REMARK    6  A    between atoms: C_17  and  C_18 
REMARK    7  A    between atoms: C_18  and  C_19 
REMARK    8  A    between atoms: C_19  and  O_21 
REMARK    9  A    between atoms: C_28  and  C_29 
REMARK   10  A    between atoms: C_29  and  C_30 
REMARK   11  A    between atoms: C_30  and  C_31 
REMARK   12  A    between atoms: C_31  and  O_33 
REMARK   13  A    between atoms: C_42  and  C_43 
REMARK   14  A    between atoms: C_43  and  C_44 
REMARK   15  A    between atoms: C_44  and  C_45 
REMARK   16  A    between atoms: C_45  and  O_47 
ROOT
HETATM    1  C   UNK     0     -44.572  19.566  -0.385  0.00  0.00     0.051 C 
HETATM    2  C   UNK     0     -43.342  18.810   0.077  0.00  0.00    -0.031 A 
HETATM    3  C   UNK     0     -42.377  18.157  -0.674  0.00  0.00     0.021 A 
HETATM    4  N   UNK     0     -41.475  17.591   0.163  0.00  0.00    -0.361 N 
HETATM    5  C   UNK     0     -41.839  17.877   1.430  0.00  0.00     0.022 A 
HETATM    6  C   UNK     0     -43.005  18.636   1.413  0.00  0.00    -0.027 A 
HETATM    7  C   UNK     0     -41.136  17.569   2.715  0.00  0.00     0.115 C 
HETATM    8  C   UNK     0     -39.631  17.774   2.734  0.00  0.00     0.021 A 
HETATM    9  N   UNK     0     -38.907  18.717   2.111  0.00  0.00    -0.361 N 
HETATM   10  C   UNK     0     -37.601  18.459   2.335  0.00  0.00     0.022 A 
HETATM   11  C   UNK     0     -37.481  17.324   3.130  0.00  0.00    -0.027 A 
HETATM   12  C   UNK     0     -38.755  16.887   3.386  0.00  0.00    -0.031 A 
HETATM   13  C   UNK     0     -39.115  15.678   4.220  0.00  0.00     0.051 C 
HETATM   14  C   UNK     0     -36.419  19.238   1.765  0.00  0.00     0.115 C 
HETATM   15  C   UNK     0     -36.352  19.234   0.247  0.00  0.00     0.021 A 
HETATM   16  N   UNK     0     -37.286  19.674  -0.618  0.00  0.00    -0.361 N 
HETATM   17  C   UNK     0     -36.878  19.430  -1.865  0.00  0.00     0.022 A 
HETATM   18  C   UNK     0     -35.614  18.809  -1.811  0.00  0.00    -0.027 A 
HETATM   19  C   UNK     0     -35.296  18.693  -0.483  0.00  0.00    -0.031 A 
HETATM   20  C   UNK     0     -33.991  18.107   0.023  0.00  0.00     0.051 C 
HETATM   21  C   UNK     0     -37.584  19.664  -3.181  0.00  0.00     0.115 C 
HETATM   22  C   UNK     0     -39.087  19.507  -3.204  0.00  0.00     0.022 A 
HETATM   23  N   UNK     0     -39.834  18.579  -2.591  0.00  0.00    -0.361 N 
HETATM   24  C   UNK     0     -41.132  18.901  -2.762  0.00  0.00     0.021 A 
HETATM   25  C   UNK     0     -41.223  20.057  -3.512  0.00  0.00    -0.031 A 
HETATM   26  C   UNK     0     -42.461  20.784  -3.997  0.00  0.00     0.051 C 
HETATM   27  C   UNK     0     -39.927  20.464  -3.808  0.00  0.00    -0.027 A 
HETATM   28  C   UNK     0     -42.347  18.203  -2.175  0.00  0.00     0.115 C 
HETATM   29  H   UNK     0     -40.610  16.960  -0.147  0.00  0.00     0.165 HD
HETATM   30  H   UNK     0     -39.317  19.596   1.555  0.00  0.00     0.165 HD
HETATM   31  H   UNK     0     -38.231  20.212  -0.344  0.00  0.00     0.165 HD
HETATM   32  H   UNK     0     -39.452  17.664  -2.068  0.00  0.00     0.165 HD
ENDROOT
BRANCH   6  33
HETATM   33  C   UNK     0     -43.813  19.199   2.555  0.00  0.00     0.051 C 
BRANCH  33  34
HETATM   34  C   UNK     0     -44.632  18.115   3.216  0.00  0.00     0.114 C 
BRANCH  34  35
HETATM   35  C   UNK     0     -44.590  18.359   4.686  0.00  0.00     0.139 C 
HETATM   36  O   UNK     0     -44.481  19.538   5.134  0.00  0.00    -0.650 OA
BRANCH  35  37
HETATM   37  O   UNK     0     -44.670  17.332   5.619  0.00  0.00    -0.776 OA
HETATM   38  H   UNK     0     -43.931  16.657   5.735  0.00  0.00     0.167 HD
ENDBRANCH  35  37
ENDBRANCH  34  35
ENDBRANCH  33  34
ENDBRANCH   6  33
BRANCH  27  39
HETATM   39  C   UNK     0     -39.622  21.641  -4.666  0.00  0.00     0.051 C 
BRANCH  39  40
HETATM   40  C   UNK     0     -39.238  21.404  -6.058  0.00  0.00     0.114 C 
BRANCH  40  41
HETATM   41  C   UNK     0     -40.081  20.671  -6.975  0.00  0.00     0.139 C 
HETATM   42  O   UNK     0     -41.169  21.092  -7.390  0.00  0.00    -0.650 OA
BRANCH  41  43
HETATM   43  O   UNK     0     -39.652  19.394  -7.437  0.00  0.00    -0.776 OA
HETATM   44  H   UNK     0     -38.732  19.119  -7.113  0.00  0.00     0.167 HD
ENDBRANCH  41  43
ENDBRANCH  40  41
ENDBRANCH  39  40
ENDBRANCH  27  39
BRANCH  11  45
HETATM   45  C   UNK     0     -36.230  16.662   3.643  0.00  0.00     0.051 C 
BRANCH  45  46
HETATM   46  C   UNK     0     -35.300  16.214   2.575  0.00  0.00     0.114 C 
BRANCH  46  47
HETATM   47  C   UNK     0     -33.922  16.257   3.143  0.00  0.00     0.139 C 
HETATM   48  O   UNK     0     -33.757  16.766   4.261  0.00  0.00    -0.650 OA
BRANCH  47  49
HETATM   49  O   UNK     0     -32.858  15.745   2.444  0.00  0.00    -0.776 OA
HETATM   50  H   UNK     0     -32.978  15.047   1.702  0.00  0.00     0.167 HD
ENDBRANCH  47  49
ENDBRANCH  46  47
ENDBRANCH  45  46
ENDBRANCH  11  45
BRANCH  18  51
HETATM   51  C   UNK     0     -34.748  18.371  -2.964  0.00  0.00     0.051 C 
BRANCH  51  52
HETATM   52  C   UNK     0     -33.696  19.455  -3.143  0.00  0.00     0.114 C 
BRANCH  52  53
HETATM   53  C   UNK     0     -34.173  20.545  -4.015  0.00  0.00     0.139 C 
HETATM   54  O   UNK     0     -33.996  21.728  -3.684  0.00  0.00    -0.650 OA
BRANCH  53  55
HETATM   55  O   UNK     0     -34.815  20.243  -5.191  0.00  0.00    -0.776 OA
HETATM   56  H   UNK     0     -35.583  20.737  -5.581  0.00  0.00     0.167 HD
ENDBRANCH  53  55
ENDBRANCH  52  53
ENDBRANCH  51  52
ENDBRANCH  18  51
TORSDOF 16
ENDMDL
MODEL 6
REMARK VINA RESULT:      -7.6      2.083      7.395
REMARK  16 active torsions:
REMARK  status: ('A' for Active; 'I' for Inactive)
REMARK    1  A    between atoms: C_6  and  C_7 
REMARK    2  A    between atoms: C_7  and  C_8 
REMARK    3  A    between atoms: C_8  and  C_9 
REMARK    4  A    between atoms: C_9  and  O_11 
REMARK    5  A    between atoms: C_16  and  C_17 
REMARK    6  A    between atoms: C_17  and  C_18 
REMARK    7  A    between atoms: C_18  and  C_19 
REMARK    8  A    between atoms: C_19  and  O_21 
REMARK    9  A    between atoms: C_28  and  C_29 
REMARK   10  A    between atoms: C_29  and  C_30 
REMARK   11  A    between atoms: C_30  and  C_31 
REMARK   12  A    between atoms: C_31  and  O_33 
REMARK   13  A    between atoms: C_42  and  C_43 
REMARK   14  A    between atoms: C_43  and  C_44 
REMARK   15  A    between atoms: C_44  and  C_45 
REMARK   16  A    between atoms: C_45  and  O_47 
ROOT
HETATM    1  C   UNK     0     -36.777  16.323   3.963  0.00  0.00     0.051 C 
HETATM    2  C   UNK     0     -37.910  17.158   3.401  0.00  0.00    -0.031 A 
HETATM    3  C   UNK     0     -37.855  18.310   2.631  0.00  0.00     0.021 A 
HETATM    4  N   UNK     0     -39.117  18.733   2.382  0.00  0.00    -0.361 N 
HETATM    5  C   UNK     0     -39.974  17.873   2.968  0.00  0.00     0.022 A 
HETATM    6  C   UNK     0     -39.252  16.876   3.617  0.00  0.00    -0.027 A 
HETATM    7  C   UNK     0     -41.470  17.835   2.917  0.00  0.00     0.115 C 
HETATM    8  C   UNK     0     -42.112  18.094   1.566  0.00  0.00     0.021 A 
HETATM    9  N   UNK     0     -41.673  17.737   0.349  0.00  0.00    -0.361 N 
HETATM   10  C   UNK     0     -42.514  18.258  -0.570  0.00  0.00     0.022 A 
HETATM   11  C   UNK     0     -43.528  18.962   0.074  0.00  0.00    -0.027 A 
HETATM   12  C   UNK     0     -43.281  18.863   1.419  0.00  0.00    -0.031 A 
HETATM   13  C   UNK     0     -44.130  19.473   2.511  0.00  0.00     0.051 C 
HETATM   14  C   UNK     0     -42.367  18.158  -2.085  0.00  0.00     0.115 C 
HETATM   15  C   UNK     0     -41.092  18.787  -2.623  0.00  0.00     0.021 A 
HETATM   16  N   UNK     0     -39.823  18.474  -2.302  0.00  0.00    -0.361 N 
HETATM   17  C   UNK     0     -38.992  19.303  -2.937  0.00  0.00     0.022 A 
HETATM   18  C   UNK     0     -39.756  20.194  -3.717  0.00  0.00    -0.027 A 
HETATM   19  C   UNK     0     -41.070  19.860  -3.512  0.00  0.00    -0.031 A 
HETATM   20  C   UNK     0     -42.233  20.552  -4.197  0.00  0.00     0.051 C 
HETATM   21  C   UNK     0     -37.486  19.417  -2.862  0.00  0.00     0.115 C 
HETATM   22  C   UNK     0     -36.830  19.119  -1.534  0.00  0.00     0.022 A 
HETATM   23  N   UNK     0     -37.247  19.459  -0.307  0.00  0.00    -0.361 N 
HETATM   24  C   UNK     0     -36.439  18.864   0.594  0.00  0.00     0.021 A 
HETATM   25  C   UNK     0     -35.472  18.132  -0.069  0.00  0.00    -0.031 A 
HETATM   26  C   UNK     0     -34.324  17.329   0.505  0.00  0.00     0.051 C 
HETATM   27  C   UNK     0     -35.702  18.280  -1.432  0.00  0.00    -0.027 A 
HETATM   28  C   UNK     0     -36.566  18.877   2.107  0.00  0.00     0.115 C 
HETATM   29  H   UNK     0     -39.392  19.660   1.827  0.00  0.00     0.165 HD
HETATM   30  H   UNK     0     -40.798  17.075   0.137  0.00  0.00     0.165 HD
HETATM   31  H   UNK     0     -39.503  17.619  -1.651  0.00  0.00     0.165 HD
HETATM   32  H   UNK     0     -38.090  20.157  -0.066  0.00  0.00     0.165 HD
ENDROOT
BRANCH   6  33
HETATM   33  C   UNK     0     -39.735  15.694   4.418  0.00  0.00     0.051 C 
BRANCH  33  34
HETATM   34  C   UNK     0     -39.956  14.496   3.524  0.00  0.00     0.114 C 
BRANCH  34  35
HETATM   35  C   UNK     0     -39.502  13.290   4.274  0.00  0.00     0.139 C 
HETATM   36  O   UNK     0     -40.334  12.397   4.609  0.00  0.00    -0.650 OA
BRANCH  35  37
HETATM   37  O   UNK     0     -38.175  13.086   4.634  0.00  0.00    -0.776 OA
HETATM   38  H   UNK     0     -37.885  12.288   5.175  0.00  0.00     0.167 HD
ENDBRANCH  35  37
ENDBRANCH  34  35
ENDBRANCH  33  34
ENDBRANCH   6  33
BRANCH  27  39
HETATM   39  C   UNK     0     -34.815  17.690  -2.472  0.00  0.00     0.051 C 
BRANCH  39  40
HETATM   40  C   UNK     0     -33.728  18.512  -3.004  0.00  0.00     0.114 C 
BRANCH  40  41
HETATM   41  C   UNK     0     -33.922  19.892  -3.389  0.00  0.00     0.139 C 
HETATM   42  O   UNK     0     -33.651  20.851  -2.655  0.00  0.00    -0.650 OA
BRANCH  41  43
HETATM   43  O   UNK     0     -34.453  20.181  -4.679  0.00  0.00    -0.776 OA
HETATM   44  H   UNK     0     -34.506  21.168  -4.898  0.00  0.00     0.167 HD
ENDBRANCH  41  43
ENDBRANCH  40  41
ENDBRANCH  39  40
ENDBRANCH  27  39
BRANCH  11  45
HETATM   45  C   UNK     0     -44.691  19.702  -0.531  0.00  0.00     0.051 C 
BRANCH  45  46
HETATM   46  C   UNK     0     -45.921  18.883  -0.676  0.00  0.00     0.114 C 
BRANCH  46  47
HETATM   47  C   UNK     0     -46.045  18.524  -2.118  0.00  0.00     0.139 C 
HETATM   48  O   UNK     0     -46.494  17.407  -2.414  0.00  0.00    -0.650 OA
BRANCH  47  49
HETATM   49  O   UNK     0     -45.670  19.408  -3.097  0.00  0.00    -0.776 OA
HETATM   50  H   UNK     0     -45.071  20.218  -2.900  0.00  0.00     0.167 HD
ENDBRANCH  47  49
ENDBRANCH  46  47
ENDBRANCH  45  46
ENDBRANCH  11  45
BRANCH  18  51
HETATM   51  C   UNK     0     -39.261  21.291  -4.624  0.00  0.00     0.051 C 
BRANCH  51  52
HETATM   52  C   UNK     0     -38.841  20.614  -5.920  0.00  0.00     0.114 C 
BRANCH  52  53
HETATM   53  C   UNK     0     -39.827  20.832  -6.997  0.00  0.00     0.139 C 
HETATM   54  O   UNK     0     -39.865  21.919  -7.594  0.00  0.00    -0.650 OA
BRANCH  53  55
HETATM   55  O   UNK     0     -40.701  19.826  -7.332  0.00  0.00    -0.776 OA
HETATM   56  H   UNK     0     -40.454  18.907  -7.615  0.00  0.00     0.167 HD
ENDBRANCH  53  55
ENDBRANCH  52  53
ENDBRANCH  51  52
ENDBRANCH  18  51
TORSDOF 16
ENDMDL
MODEL 7
REMARK VINA RESULT:      -7.4      2.956      4.570
REMARK  16 active torsions:
REMARK  status: ('A' for Active; 'I' for Inactive)
REMARK    1  A    between atoms: C_6  and  C_7 
REMARK    2  A    between atoms: C_7  and  C_8 
REMARK    3  A    between atoms: C_8  and  C_9 
REMARK    4  A    between atoms: C_9  and  O_11 
REMARK    5  A    between atoms: C_16  and  C_17 
REMARK    6  A    between atoms: C_17  and  C_18 
REMARK    7  A    between atoms: C_18  and  C_19 
REMARK    8  A    between atoms: C_19  and  O_21 
REMARK    9  A    between atoms: C_28  and  C_29 
REMARK   10  A    between atoms: C_29  and  C_30 
REMARK   11  A    between atoms: C_30  and  C_31 
REMARK   12  A    between atoms: C_31  and  O_33 
REMARK   13  A    between atoms: C_42  and  C_43 
REMARK   14  A    between atoms: C_43  and  C_44 
REMARK   15  A    between atoms: C_44  and  C_45 
REMARK   16  A    between atoms: C_45  and  O_47 
ROOT
HETATM    1  C   UNK     0     -36.489  22.417  -5.512  0.00  0.00     0.051 C 
HETATM    2  C   UNK     0     -37.118  21.305  -4.698  0.00  0.00    -0.031 A 
HETATM    3  C   UNK     0     -36.518  20.221  -4.077  0.00  0.00     0.021 A 
HETATM    4  N   UNK     0     -37.475  19.464  -3.488  0.00  0.00    -0.361 N 
HETATM    5  C   UNK     0     -38.670  20.047  -3.713  0.00  0.00     0.022 A 
HETATM    6  C   UNK     0     -38.484  21.200  -4.469  0.00  0.00    -0.027 A 
HETATM    7  C   UNK     0     -40.025  19.668  -3.203  0.00  0.00     0.115 C 
HETATM    8  C   UNK     0     -40.113  19.252  -1.745  0.00  0.00     0.021 A 
HETATM    9  N   UNK     0     -39.424  19.728  -0.697  0.00  0.00    -0.361 N 
HETATM   10  C   UNK     0     -39.759  19.001   0.390  0.00  0.00     0.022 A 
HETATM   11  C   UNK     0     -40.698  18.037   0.035  0.00  0.00    -0.027 A 
HETATM   12  C   UNK     0     -40.925  18.189  -1.309  0.00  0.00    -0.031 A 
HETATM   13  C   UNK     0     -41.881  17.357  -2.134  0.00  0.00     0.051 C 
HETATM   14  C   UNK     0     -39.172  19.152   1.791  0.00  0.00     0.115 C 
HETATM   15  C   UNK     0     -37.673  18.907   1.860  0.00  0.00     0.021 A 
HETATM   16  N   UNK     0     -36.703  19.559   1.191  0.00  0.00    -0.361 N 
HETATM   17  C   UNK     0     -35.525  18.999   1.473  0.00  0.00     0.022 A 
HETATM   18  C   UNK     0     -35.736  17.938   2.375  0.00  0.00    -0.027 A 
HETATM   19  C   UNK     0     -37.085  17.891   2.611  0.00  0.00    -0.031 A 
HETATM   20  C   UNK     0     -37.743  16.908   3.562  0.00  0.00     0.051 C 
HETATM   21  C   UNK     0     -34.148  19.308   0.931  0.00  0.00     0.115 C 
HETATM   22  C   UNK     0     -34.050  19.766  -0.506  0.00  0.00     0.022 A 
HETATM   23  N   UNK     0     -34.727  19.313  -1.569  0.00  0.00    -0.361 N 
HETATM   24  C   UNK     0     -34.436  20.100  -2.624  0.00  0.00     0.021 A 
HETATM   25  C   UNK     0     -33.541  21.078  -2.232  0.00  0.00    -0.031 A 
HETATM   26  C   UNK     0     -32.892  22.165  -3.065  0.00  0.00     0.051 C 
HETATM   27  C   UNK     0     -33.279  20.885  -0.881  0.00  0.00    -0.027 A 
HETATM   28  C   UNK     0     -35.028  20.039  -4.021  0.00  0.00     0.115 C 
HETATM   29  H   UNK     0     -37.302  18.503  -2.952  0.00  0.00     0.165 HD
HETATM   30  H   UNK     0     -38.736  20.609  -0.711  0.00  0.00     0.165 HD
HETATM   31  H   UNK     0     -36.847  20.463   0.544  0.00  0.00     0.165 HD
HETATM   32  H   UNK     0     -35.384  18.405  -1.595  0.00  0.00     0.165 HD
ENDROOT
BRANCH   6  33
HETATM   33  C   UNK     0     -39.493  22.194  -4.987  0.00  0.00     0.051 C 
BRANCH  33  34
HETATM   34  C   UNK     0     -39.777  21.955  -6.451  0.00  0.00     0.114 C 
BRANCH  34  35
HETATM   35  C   UNK     0     -40.878  20.952  -6.534  0.00  0.00     0.139 C 
HETATM   36  O   UNK     0     -41.933  21.105  -5.852  0.00  0.00    -0.650 OA
BRANCH  35  37
HETATM   37  O   UNK     0     -40.805  19.826  -7.345  0.00  0.00    -0.776 OA
HETATM   38  H   UNK     0     -39.961  19.571  -7.832  0.00  0.00     0.167 HD
ENDBRANCH  35  37
ENDBRANCH  34  35
ENDBRANCH  33  34
ENDBRANCH   6  33
BRANCH  27  39
HETATM   39  C   UNK     0     -32.300  21.707  -0.119  0.00  0.00     0.051 C 
BRANCH  39  40
HETATM   40  C   UNK     0     -31.022  21.099   0.251  0.00  0.00     0.114 C 
BRANCH  40  41
HETATM   41  C   UNK     0     -29.976  21.847   0.911  0.00  0.00     0.139 C 
HETATM   42  O   UNK     0     -29.957  23.083   0.977  0.00  0.00    -0.650 OA
BRANCH  41  43
HETATM   43  O   UNK     0     -28.901  21.140   1.522  0.00  0.00    -0.776 OA
HETATM   44  H   UNK     0     -28.718  20.228   1.120  0.00  0.00     0.167 HD
ENDBRANCH  41  43
ENDBRANCH  40  41
ENDBRANCH  39  40
ENDBRANCH  27  39
BRANCH  11  45
HETATM   45  C   UNK     0     -41.367  17.008   0.905  0.00  0.00     0.051 C 
BRANCH  45  46
HETATM   46  C   UNK     0     -42.513  17.533   1.691  0.00  0.00     0.114 C 
BRANCH  46  47
HETATM   47  C   UNK     0     -42.865  16.497   2.704  0.00  0.00     0.139 C 
HETATM   48  O   UNK     0     -42.702  15.304   2.412  0.00  0.00    -0.650 OA
BRANCH  47  49
HETATM   49  O   UNK     0     -43.360  16.855   3.933  0.00  0.00    -0.776 OA
HETATM   50  H   UNK     0     -42.847  17.478   4.567  0.00  0.00     0.167 HD
ENDBRANCH  47  49
ENDBRANCH  46  47
ENDBRANCH  45  46
ENDBRANCH  11  45
BRANCH  18  51
HETATM   51  C   UNK     0     -34.705  17.031   2.996  0.00  0.00     0.051 C 
BRANCH  51  52
HETATM   52  C   UNK     0     -34.474  15.903   2.000  0.00  0.00     0.114 C 
BRANCH  52  53
HETATM   53  C   UNK     0     -33.609  14.846   2.558  0.00  0.00     0.139 C 
HETATM   54  O   UNK     0     -32.433  14.741   2.177  0.00  0.00    -0.650 OA
BRANCH  53  55
HETATM   55  O   UNK     0     -34.114  13.979   3.497  0.00  0.00    -0.776 OA
HETATM   56  H   UNK     0     -34.838  14.179   4.147  0.00  0.00     0.167 HD
ENDBRANCH  53  55
ENDBRANCH  52  53
ENDBRANCH  51  52
ENDBRANCH  18  51
TORSDOF 16
ENDMDL
MODEL 8
REMARK VINA RESULT:      -7.3      2.812      6.954
REMARK  16 active torsions:
REMARK  status: ('A' for Active; 'I' for Inactive)
REMARK    1  A    between atoms: C_6  and  C_7 
REMARK    2  A    between atoms: C_7  and  C_8 
REMARK    3  A    between atoms: C_8  and  C_9 
REMARK    4  A    between atoms: C_9  and  O_11 
REMARK    5  A    between atoms: C_16  and  C_17 
REMARK    6  A    between atoms: C_17  and  C_18 
REMARK    7  A    between atoms: C_18  and  C_19 
REMARK    8  A    between atoms: C_19  and  O_21 
REMARK    9  A    between atoms: C_28  and  C_29 
REMARK   10  A    between atoms: C_29  and  C_30 
REMARK   11  A    between atoms: C_30  and  C_31 
REMARK   12  A    between atoms: C_31  and  O_33 
REMARK   13  A    between atoms: C_42  and  C_43 
REMARK   14  A    between atoms: C_43  and  C_44 
REMARK   15  A    between atoms: C_44  and  C_45 
REMARK   16  A    between atoms: C_45  and  O_47 
ROOT
HETATM    1  C   UNK     0     -43.614  17.916   3.786  0.00  0.00     0.051 C 
HETATM    2  C   UNK     0     -42.213  17.525   3.363  0.00  0.00    -0.031 A 
HETATM    3  C   UNK     0     -41.752  17.107   2.124  0.00  0.00     0.021 A 
HETATM    4  N   UNK     0     -40.429  16.833   2.215  0.00  0.00    -0.361 N 
HETATM    5  C   UNK     0     -40.035  17.075   3.482  0.00  0.00     0.022 A 
HETATM    6  C   UNK     0     -41.126  17.507   4.228  0.00  0.00    -0.027 A 
HETATM    7  C   UNK     0     -38.663  17.021   4.078  0.00  0.00     0.115 C 
HETATM    8  C   UNK     0     -37.534  17.606   3.248  0.00  0.00     0.021 A 
HETATM    9  N   UNK     0     -37.561  18.673   2.435  0.00  0.00    -0.361 N 
HETATM   10  C   UNK     0     -36.358  18.771   1.831  0.00  0.00     0.022 A 
HETATM   11  C   UNK     0     -35.530  17.744   2.275  0.00  0.00    -0.027 A 
HETATM   12  C   UNK     0     -36.265  17.006   3.168  0.00  0.00    -0.031 A 
HETATM   13  C   UNK     0     -35.769  15.787   3.911  0.00  0.00     0.051 C 
HETATM   14  C   UNK     0     -35.959  19.800   0.777  0.00  0.00     0.115 C 
HETATM   15  C   UNK     0     -36.798  19.740  -0.490  0.00  0.00     0.021 A 
HETATM   16  N   UNK     0     -38.132  19.884  -0.599  0.00  0.00    -0.361 N 
HETATM   17  C   UNK     0     -38.491  19.695  -1.870  0.00  0.00     0.022 A 
HETATM   18  C   UNK     0     -37.335  19.423  -2.628  0.00  0.00    -0.027 A 
HETATM   19  C   UNK     0     -36.281  19.456  -1.752  0.00  0.00    -0.031 A 
HETATM   20  C   UNK     0     -34.835  19.250  -2.163  0.00  0.00     0.051 C 
HETATM   21  C   UNK     0     -39.866  19.676  -2.499  0.00  0.00     0.115 C 
HETATM   22  C   UNK     0     -41.006  19.137  -1.668  0.00  0.00     0.022 A 
HETATM   23  N   UNK     0     -41.007  18.079  -0.847  0.00  0.00    -0.361 N 
HETATM   24  C   UNK     0     -42.188  18.047  -0.198  0.00  0.00     0.021 A 
HETATM   25  C   UNK     0     -42.972  19.104  -0.620  0.00  0.00    -0.031 A 
HETATM   26  C   UNK     0     -44.385  19.464  -0.213  0.00  0.00     0.051 C 
HETATM   27  C   UNK     0     -42.237  19.816  -1.561  0.00  0.00    -0.027 A 
HETATM   28  C   UNK     0     -42.621  17.089   0.898  0.00  0.00     0.115 C 
HETATM   29  H   UNK     0     -39.792  16.432   1.392  0.00  0.00     0.165 HD
HETATM   30  H   UNK     0     -38.412  19.389   2.322  0.00  0.00     0.165 HD
HETATM   31  H   UNK     0     -38.830  20.173   0.230  0.00  0.00     0.165 HD
HETATM   32  H   UNK     0     -40.188  17.319  -0.749  0.00  0.00     0.165 HD
ENDROOT
BRANCH   6  33
HETATM   33  C   UNK     0     -41.214  17.897   5.682  0.00  0.00     0.051 C 
BRANCH  33  34
HETATM   34  C   UNK     0     -41.004  19.383   5.851  0.00  0.00     0.114 C 
BRANCH  34  35
HETATM   35  C   UNK     0     -42.139  19.903   6.667  0.00  0.00     0.139 C 
HETATM   36  O   UNK     0     -43.094  20.519   6.110  0.00  0.00    -0.650 OA
BRANCH  35  37
HETATM   37  O   UNK     0     -42.206  19.743   8.046  0.00  0.00    -0.776 OA
HETATM   38  H   UNK     0     -42.924  19.189   8.485  0.00  0.00     0.167 HD
ENDBRANCH  35  37
ENDBRANCH  34  35
ENDBRANCH  33  34
ENDBRANCH   6  33
BRANCH  27  39
HETATM   39  C   UNK     0     -42.781  20.989  -2.296  0.00  0.00     0.051 C 
BRANCH  39  40
HETATM   40  C   UNK     0     -43.009  20.862  -3.735  0.00  0.00     0.114 C 
BRANCH  40  41
HETATM   41  C   UNK     0     -42.075  21.377  -4.711  0.00  0.00     0.139 C 
HETATM   42  O   UNK     0     -41.963  20.921  -5.857  0.00  0.00    -0.650 OA
BRANCH  41  43
HETATM   43  O   UNK     0     -41.232  22.467  -4.353  0.00  0.00    -0.776 OA
HETATM   44  H   UNK     0     -40.468  22.220  -3.736  0.00  0.00     0.167 HD
ENDBRANCH  41  43
ENDBRANCH  40  41
ENDBRANCH  39  40
ENDBRANCH  27  39
BRANCH  11  45
HETATM   45  C   UNK     0     -34.104  17.451   1.891  0.00  0.00     0.051 C 
BRANCH  45  46
HETATM   46  C   UNK     0     -33.918  17.127   0.453  0.00  0.00     0.114 C 
BRANCH  46  47
HETATM   47  C   UNK     0     -34.744  15.921   0.161  0.00  0.00     0.139 C 
HETATM   48  O   UNK     0     -34.441  14.850   0.706  0.00  0.00    -0.650 OA
BRANCH  47  49
HETATM   49  O   UNK     0     -35.816  15.992  -0.692  0.00  0.00    -0.776 OA
HETATM   50  H   UNK     0     -36.755  15.686  -0.414  0.00  0.00     0.167 HD
ENDBRANCH  47  49
ENDBRANCH  46  47
ENDBRANCH  45  46
ENDBRANCH  11  45
BRANCH  18  51
HETATM   51  C   UNK     0     -37.237  19.168  -4.109  0.00  0.00     0.051 C 
BRANCH  51  52
HETATM   52  C   UNK     0     -37.189  20.535  -4.775  0.00  0.00     0.114 C 
BRANCH  52  53
HETATM   53  C   UNK     0     -38.395  20.794  -5.586  0.00  0.00     0.139 C 
HETATM   54  O   UNK     0     -38.694  21.957  -5.901  0.00  0.00    -0.650 OA
BRANCH  53  55
HETATM   55  O   UNK     0     -39.184  19.742  -5.985  0.00  0.00    -0.776 OA
HETATM   56  H   UNK     0     -38.869  18.827  -6.207  0.00  0.00     0.167 HD
ENDBRANCH  53  55
ENDBRANCH  52  53
ENDBRANCH  51  52
ENDBRANCH  18  51
TORSDOF 16
ENDMDL
MODEL 9
REMARK VINA RESULT:      -7.2      2.466      7.531
REMARK  16 active torsions:
REMARK  status: ('A' for Active; 'I' for Inactive)
REMARK    1  A    between atoms: C_6  and  C_7 
REMARK    2  A    between atoms: C_7  and  C_8 
REMARK    3  A    between atoms: C_8  and  C_9 
REMARK    4  A    between atoms: C_9  and  O_11 
REMARK    5  A    between atoms: C_16  and  C_17 
REMARK    6  A    between atoms: C_17  and  C_18 
REMARK    7  A    between atoms: C_18  and  C_19 
REMARK    8  A    between atoms: C_19  and  O_21 
REMARK    9  A    between atoms: C_28  and  C_29 
REMARK   10  A    between atoms: C_29  and  C_30 
REMARK   11  A    between atoms: C_30  and  C_31 
REMARK   12  A    between atoms: C_31  and  O_33 
REMARK   13  A    between atoms: C_42  and  C_43 
REMARK   14  A    between atoms: C_43  and  C_44 
REMARK   15  A    between atoms: C_44  and  C_45 
REMARK   16  A    between atoms: C_45  and  O_47 
ROOT
HETATM    1  C   UNK     0     -40.324  17.023   4.365  0.00  0.00     0.051 C 
HETATM    2  C   UNK     0     -40.218  18.052   3.258  0.00  0.00    -0.031 A 
HETATM    3  C   UNK     0     -39.120  18.787   2.842  0.00  0.00     0.021 A 
HETATM    4  N   UNK     0     -39.496  19.611   1.835  0.00  0.00    -0.361 N 
HETATM    5  C   UNK     0     -40.808  19.410   1.594  0.00  0.00     0.022 A 
HETATM    6  C   UNK     0     -41.292  18.443   2.469  0.00  0.00    -0.027 A 
HETATM    7  C   UNK     0     -41.681  19.997   0.529  0.00  0.00     0.115 C 
HETATM    8  C   UNK     0     -41.086  20.092  -0.864  0.00  0.00     0.021 A 
HETATM    9  N   UNK     0     -40.247  19.241  -1.475  0.00  0.00    -0.361 N 
HETATM   10  C   UNK     0     -39.907  19.771  -2.669  0.00  0.00     0.022 A 
HETATM   11  C   UNK     0     -40.551  20.994  -2.835  0.00  0.00    -0.027 A 
HETATM   12  C   UNK     0     -41.295  21.202  -1.702  0.00  0.00    -0.031 A 
HETATM   13  C   UNK     0     -42.170  22.407  -1.440  0.00  0.00     0.051 C 
HETATM   14  C   UNK     0     -38.924  19.176  -3.673  0.00  0.00     0.115 C 
HETATM   15  C   UNK     0     -37.513  19.015  -3.131  0.00  0.00     0.021 A 
HETATM   16  N   UNK     0     -37.121  18.304  -2.058  0.00  0.00    -0.361 N 
HETATM   17  C   UNK     0     -35.810  18.474  -1.873  0.00  0.00     0.022 A 
HETATM   18  C   UNK     0     -35.322  19.330  -2.881  0.00  0.00    -0.027 A 
HETATM   19  C   UNK     0     -36.398  19.661  -3.663  0.00  0.00    -0.031 A 
HETATM   20  C   UNK     0     -36.307  20.545  -4.893  0.00  0.00     0.051 C 
HETATM   21  C   UNK     0     -34.907  17.956  -0.777  0.00  0.00     0.115 C 
HETATM   22  C   UNK     0     -35.499  17.814   0.605  0.00  0.00     0.022 A 
HETATM   23  N   UNK     0     -36.339  18.644   1.237  0.00  0.00    -0.361 N 
HETATM   24  C   UNK     0     -36.726  18.059   2.389  0.00  0.00     0.021 A 
HETATM   25  C   UNK     0     -36.111  16.827   2.506  0.00  0.00    -0.031 A 
HETATM   26  C   UNK     0     -36.199  15.822   3.636  0.00  0.00     0.051 C 
HETATM   27  C   UNK     0     -35.321  16.648   1.377  0.00  0.00    -0.027 A 
HETATM   28  C   UNK     0     -37.740  18.572   3.397  0.00  0.00     0.115 C 
HETATM   29  H   UNK     0     -38.841  20.357   1.328  0.00  0.00     0.165 HD
HETATM   30  H   UNK     0     -39.933  18.240  -1.088  0.00  0.00     0.165 HD
HETATM   31  H   UNK     0     -37.773  17.629  -1.445  0.00  0.00     0.165 HD
HETATM   32  H   UNK     0     -36.634  19.671   0.897  0.00  0.00     0.165 HD
ENDROOT
BRANCH   6  33
HETATM   33  C   UNK     0     -42.680  17.872   2.611  0.00  0.00     0.051 C 
BRANCH  33  34
HETATM   34  C   UNK     0     -43.519  18.726   3.532  0.00  0.00     0.114 C 
BRANCH  34  35
HETATM   35  C   UNK     0     -44.101  17.827   4.569  0.00  0.00     0.139 C 
HETATM   36  O   UNK     0     -45.153  17.168   4.322  0.00  0.00    -0.650 OA
BRANCH  35  37
HETATM   37  O   UNK     0     -43.533  17.666   5.827  0.00  0.00    -0.776 OA
HETATM   38  H   UNK     0     -42.620  18.028   6.051  0.00  0.00     0.167 HD
ENDBRANCH  35  37
ENDBRANCH  34  35
ENDBRANCH  33  34
ENDBRANCH   6  33
BRANCH  27  39
HETATM   39  C   UNK     0     -34.446  15.460   1.180  0.00  0.00     0.051 C 
BRANCH  39  40
HETATM   40  C   UNK     0     -33.075  15.516   1.686  0.00  0.00     0.114 C 
BRANCH  40  41
HETATM   41  C   UNK     0     -32.738  15.141   3.041  0.00  0.00     0.139 C 
HETATM   42  O   UNK     0     -32.600  15.957   3.962  0.00  0.00    -0.650 OA
BRANCH  41  43
HETATM   43  O   UNK     0     -32.550  13.764   3.350  0.00  0.00    -0.776 OA
HETATM   44  H   UNK     0     -31.666  13.551   3.795  0.00  0.00     0.167 HD
ENDBRANCH  41  43
ENDBRANCH  40  41
ENDBRANCH  39  40
ENDBRANCH  27  39
BRANCH  11  45
HETATM   45  C   UNK     0     -40.486  21.942  -4.003  0.00  0.00     0.051 C 
BRANCH  45  46
HETATM   46  C   UNK     0     -41.438  21.622  -5.097  0.00  0.00     0.114 C 
BRANCH  46  47
HETATM   47  C   UNK     0     -40.635  21.129  -6.252  0.00  0.00     0.139 C 
HETATM   48  O   UNK     0     -39.454  21.490  -6.349  0.00  0.00    -0.650 OA
BRANCH  47  49
HETATM   49  O   UNK     0     -41.190  20.293  -7.188  0.00  0.00    -0.776 OA
HETATM   50  H   UNK     0     -41.037  19.278  -7.171  0.00  0.00     0.167 HD
ENDBRANCH  47  49
ENDBRANCH  46  47
ENDBRANCH  45  46
ENDBRANCH  11  45
BRANCH  18  51
HETATM   51  C   UNK     0     -33.904  19.791  -3.099  0.00  0.00     0.051 C 
BRANCH  51  52
HETATM   52  C   UNK     0     -33.704  20.996  -2.192  0.00  0.00     0.114 C 
BRANCH  52  53
HETATM   53  C   UNK     0     -33.602  22.252  -2.961  0.00  0.00     0.139 C 
HETATM   54  O   UNK     0     -32.537  22.551  -3.524  0.00  0.00    -0.650 OA
BRANCH  53  55
HETATM   55  O   UNK     0     -34.690  23.086  -3.047  0.00  0.00    -0.776 OA
HETATM   56  H   UNK     0     -35.429  23.016  -3.706  0.00  0.00     0.167 HD
ENDBRANCH  53  55
ENDBRANCH  52  53
ENDBRANCH  51  52
ENDBRANCH  18  51
TORSDOF 16
ENDMDL
MODEL 10
REMARK VINA RESULT:      -7.2      3.063      7.968
REMARK  16 active torsions:
REMARK  status: ('A' for Active; 'I' for Inactive)
REMARK    1  A    between atoms: C_6  and  C_7 
REMARK    2  A    between atoms: C_7  and  C_8 
REMARK    3  A    between atoms: C_8  and  C_9 
REMARK    4  A    between atoms: C_9  and  O_11 
REMARK    5  A    between atoms: C_16  and  C_17 
REMARK    6  A    between atoms: C_17  and  C_18 
REMARK    7  A    between atoms: C_18  and  C_19 
REMARK    8  A    between atoms: C_19  and  O_21 
REMARK    9  A    between atoms: C_28  and  C_29 
REMARK   10  A    between atoms: C_29  and  C_30 
REMARK   11  A    between atoms: C_30  and  C_31 
REMARK   12  A    between atoms: C_31  and  O_33 
REMARK   13  A    between atoms: C_42  and  C_43 
REMARK   14  A    between atoms: C_43  and  C_44 
REMARK   15  A    between atoms: C_44  and  C_45 
REMARK   16  A    between atoms: C_45  and  O_47 
ROOT
HETATM    1  C   UNK     0     -42.304  20.918  -5.726  0.00  0.00     0.051 C 
HETATM    2  C   UNK     0     -40.986  20.981  -4.980  0.00  0.00    -0.031 A 
HETATM    3  C   UNK     0     -40.730  21.389  -3.680  0.00  0.00     0.021 A 
HETATM    4  N   UNK     0     -39.399  21.309  -3.447  0.00  0.00    -0.361 N 
HETATM    5  C   UNK     0     -38.802  20.850  -4.567  0.00  0.00     0.022 A 
HETATM    6  C   UNK     0     -39.766  20.638  -5.547  0.00  0.00    -0.027 A 
HETATM    7  C   UNK     0     -37.367  20.496  -4.804  0.00  0.00     0.115 C 
HETATM    8  C   UNK     0     -36.663  19.729  -3.699  0.00  0.00     0.021 A 
HETATM    9  N   UNK     0     -37.164  18.789  -2.883  0.00  0.00    -0.361 N 
HETATM   10  C   UNK     0     -36.205  18.450  -1.995  0.00  0.00     0.022 A 
HETATM   11  C   UNK     0     -35.052  19.185  -2.253  0.00  0.00    -0.027 A 
HETATM   12  C   UNK     0     -35.333  19.993  -3.325  0.00  0.00    -0.031 A 
HETATM   13  C   UNK     0     -34.367  20.967  -3.962  0.00  0.00     0.051 C 
HETATM   14  C   UNK     0     -36.354  17.463  -0.841  0.00  0.00     0.115 C 
HETATM   15  C   UNK     0     -37.416  17.858   0.174  0.00  0.00     0.021 A 
HETATM   16  N   UNK     0     -38.727  18.068  -0.049  0.00  0.00    -0.361 N 
HETATM   17  C   UNK     0     -39.305  18.468   1.086  0.00  0.00     0.022 A 
HETATM   18  C   UNK     0     -38.326  18.510   2.099  0.00  0.00    -0.027 A 
HETATM   19  C   UNK     0     -37.148  18.125   1.515  0.00  0.00    -0.031 A 
HETATM   20  C   UNK     0     -35.835  17.998   2.267  0.00  0.00     0.051 C 
HETATM   21  C   UNK     0     -40.731  18.896   1.351  0.00  0.00     0.115 C 
HETATM   22  C   UNK     0     -41.458  19.622   0.244  0.00  0.00     0.022 A 
HETATM   23  N   UNK     0     -40.983  20.559  -0.587  0.00  0.00    -0.361 N 
HETATM   24  C   UNK     0     -41.929  20.825  -1.510  0.00  0.00     0.021 A 
HETATM   25  C   UNK     0     -43.044  20.048  -1.262  0.00  0.00    -0.031 A 
HETATM   26  C   UNK     0     -44.369  20.019  -1.996  0.00  0.00     0.051 C 
HETATM   27  C   UNK     0     -42.767  19.270  -0.144  0.00  0.00    -0.027 A 
HETATM   28  C   UNK     0     -41.821  21.748  -2.711  0.00  0.00     0.115 C 
HETATM   29  H   UNK     0     -38.885  21.614  -2.506  0.00  0.00     0.165 HD
HETATM   30  H   UNK     0     -38.178  18.327  -2.962  0.00  0.00     0.165 HD
HETATM   31  H   UNK     0     -39.265  17.885  -1.015  0.00  0.00     0.165 HD
HETATM   32  H   UNK     0     -39.991  21.073  -0.503  0.00  0.00     0.165 HD
ENDROOT
BRANCH   6  33
HETATM   33  C   UNK     0     -39.617  20.142  -6.963  0.00  0.00     0.051 C 
BRANCH  33  34
HETATM   34  C   UNK     0     -39.619  21.296  -7.937  0.00  0.00     0.114 C 
BRANCH  34  35
HETATM   35  C   UNK     0     -40.098  20.772  -9.248  0.00  0.00     0.139 C 
HETATM   36  O   UNK     0     -39.345  20.814 -10.264  0.00  0.00    -0.650 OA
BRANCH  35  37
HETATM   37  O   UNK     0     -41.363  20.222  -9.419  0.00  0.00    -0.776 OA
HETATM   38  H   UNK     0     -41.518  19.405  -9.988  0.00  0.00     0.167 HD
ENDBRANCH  35  37
ENDBRANCH  34  35
ENDBRANCH  33  34
ENDBRANCH   6  33
BRANCH  27  39
HETATM   39  C   UNK     0     -43.763  18.351   0.471  0.00  0.00     0.051 C 
BRANCH  39  40
HETATM   40  C   UNK     0     -43.961  18.411   1.919  0.00  0.00     0.114 C 
BRANCH  40  41
HETATM   41  C   UNK     0     -43.551  17.339   2.798  0.00  0.00     0.139 C 
HETATM   42  O   UNK     0     -43.044  16.283   2.397  0.00  0.00    -0.650 OA
BRANCH  41  43
HETATM   43  O   UNK     0     -43.732  17.489   4.202  0.00  0.00    -0.776 OA
HETATM   44  H   UNK     0     -44.678  17.720   4.481  0.00  0.00     0.167 HD
ENDBRANCH  41  43
ENDBRANCH  40  41
ENDBRANCH  39  40
ENDBRANCH  27  39
BRANCH  11  45
HETATM   45  C   UNK     0     -33.729  19.143  -1.535  0.00  0.00     0.051 C 
BRANCH  45  46
HETATM   46  C   UNK     0     -33.745  19.786  -0.196  0.00  0.00     0.114 C 
BRANCH  46  47
HETATM   47  C   UNK     0     -32.601  20.741  -0.151  0.00  0.00     0.139 C 
HETATM   48  O   UNK     0     -32.572  21.669  -0.971  0.00  0.00    -0.650 OA
BRANCH  47  49
HETATM   49  O   UNK     0     -31.602  20.596   0.778  0.00  0.00    -0.776 OA
HETATM   50  H   UNK     0     -30.608  20.632   0.519  0.00  0.00     0.167 HD
ENDBRANCH  47  49
ENDBRANCH  46  47
ENDBRANCH  45  46
ENDBRANCH  11  45
BRANCH  18  51
HETATM   51  C   UNK     0     -38.509  18.878   3.548  0.00  0.00     0.051 C 
BRANCH  51  52
HETATM   52  C   UNK     0     -38.885  17.592   4.270  0.00  0.00     0.114 C 
BRANCH  52  53
HETATM   53  C   UNK     0     -40.307  17.577   4.661  0.00  0.00     0.139 C 
HETATM   54  O   UNK     0     -40.909  18.645   4.859  0.00  0.00    -0.650 OA
BRANCH  53  55
HETATM   55  O   UNK     0     -40.959  16.377   4.809  0.00  0.00    -0.776 OA
HETATM   56  H   UNK     0     -40.576  15.549   5.199  0.00  0.00     0.167 HD
ENDBRANCH  53  55
ENDBRANCH  52  53
ENDBRANCH  51  52
ENDBRANCH  18  51
TORSDOF 16
ENDMDL
MODEL 11
REMARK VINA RESULT:      -7.2      2.925      7.911
REMARK  16 active torsions:
REMARK  status: ('A' for Active; 'I' for Inactive)
REMARK    1  A    between atoms: C_6  and  C_7 
REMARK    2  A    between atoms: C_7  and  C_8 
REMARK    3  A    between atoms: C_8  and  C_9 
REMARK    4  A    between atoms: C_9  and  O_11 
REMARK    5  A    between atoms: C_16  and  C_17 
REMARK    6  A    between atoms: C_17  and  C_18 
REMARK    7  A    between atoms: C_18  and  C_19 
REMARK    8  A    between atoms: C_19  and  O_21 
REMARK    9  A    between atoms: C_28  and  C_29 
REMARK   10  A    between atoms: C_29  and  C_30 
REMARK   11  A    between atoms: C_30  and  C_31 
REMARK   12  A    between atoms: C_31  and  O_33 
REMARK   13  A    between atoms: C_42  and  C_43 
REMARK   14  A    between atoms: C_43  and  C_44 
REMARK   15  A    between atoms: C_44  and  C_45 
REMARK   16  A    between atoms: C_45  and  O_47 
ROOT
HETATM    1  C   UNK     0     -34.198  18.597  -1.004  0.00  0.00     0.051 C 
HETATM    2  C   UNK     0     -35.491  18.881  -0.266  0.00  0.00    -0.031 A 
HETATM    3  C   UNK     0     -36.363  19.950  -0.398  0.00  0.00     0.021 A 
HETATM    4  N   UNK     0     -37.376  19.806   0.489  0.00  0.00    -0.361 N 
HETATM    5  C   UNK     0     -37.173  18.663   1.177  0.00  0.00     0.022 A 
HETATM    6  C   UNK     0     -36.001  18.061   0.732  0.00  0.00    -0.027 A 
HETATM    7  C   UNK     0     -38.042  18.002   2.200  0.00  0.00     0.115 C 
HETATM    8  C   UNK     0     -39.533  17.970   1.911  0.00  0.00     0.021 A 
HETATM    9  N   UNK     0     -40.152  17.832   0.728  0.00  0.00    -0.361 N 
HETATM   10  C   UNK     0     -41.481  17.954   0.934  0.00  0.00     0.022 A 
HETATM   11  C   UNK     0     -41.724  18.166   2.288  0.00  0.00    -0.027 A 
HETATM   12  C   UNK     0     -40.502  18.177   2.909  0.00  0.00    -0.031 A 
HETATM   13  C   UNK     0     -40.276  18.373   4.391  0.00  0.00     0.051 C 
HETATM   14  C   UNK     0     -42.565  17.928  -0.139  0.00  0.00     0.115 C 
HETATM   15  C   UNK     0     -42.435  19.036  -1.173  0.00  0.00     0.021 A 
HETATM   16  N   UNK     0     -41.390  19.283  -1.984  0.00  0.00    -0.361 N 
HETATM   17  C   UNK     0     -41.637  20.386  -2.694  0.00  0.00     0.022 A 
HETATM   18  C   UNK     0     -42.909  20.875  -2.335  0.00  0.00    -0.027 A 
HETATM   19  C   UNK     0     -43.398  20.020  -1.382  0.00  0.00    -0.031 A 
HETATM   20  C   UNK     0     -44.769  20.162  -0.745  0.00  0.00     0.051 C 
HETATM   21  C   UNK     0     -40.763  21.121  -3.685  0.00  0.00     0.115 C 
HETATM   22  C   UNK     0     -39.273  21.123  -3.433  0.00  0.00     0.022 A 
HETATM   23  N   UNK     0     -38.629  21.254  -2.266  0.00  0.00    -0.361 N 
HETATM   24  C   UNK     0     -37.314  21.052  -2.483  0.00  0.00     0.021 A 
HETATM   25  C   UNK     0     -37.105  20.795  -3.824  0.00  0.00    -0.031 A 
HETATM   26  C   UNK     0     -35.802  20.547  -4.555  0.00  0.00     0.051 C 
HETATM   27  C   UNK     0     -38.344  20.835  -4.453  0.00  0.00    -0.027 A 
HETATM   28  C   UNK     0     -36.198  21.007  -1.453  0.00  0.00     0.115 C 
HETATM   29  H   UNK     0     -38.206  20.532   0.650  0.00  0.00     0.165 HD
HETATM   30  H   UNK     0     -39.658  17.599  -0.247  0.00  0.00     0.165 HD
HETATM   31  H   UNK     0     -40.478  18.640  -2.094  0.00  0.00     0.165 HD
HETATM   32  H   UNK     0     -39.092  21.534  -1.284  0.00  0.00     0.165 HD
ENDROOT
BRANCH   6  33
HETATM   33  C   UNK     0     -35.337  16.783   1.179  0.00  0.00     0.051 C 
BRANCH  33  34
HETATM   34  C   UNK     0     -34.356  17.053   2.295  0.00  0.00     0.114 C 
BRANCH  34  35
HETATM   35  C   UNK     0     -34.838  16.318   3.500  0.00  0.00     0.139 C 
HETATM   36  O   UNK     0     -34.238  16.446   4.607  0.00  0.00    -0.650 OA
BRANCH  35  37
HETATM   37  O   UNK     0     -35.943  15.477   3.472  0.00  0.00    -0.776 OA
HETATM   38  H   UNK     0     -36.883  15.832   3.400  0.00  0.00     0.167 HD
ENDBRANCH  35  37
ENDBRANCH  34  35
ENDBRANCH  33  34
ENDBRANCH   6  33
BRANCH  27  39
HETATM   39  C   UNK     0     -38.513  20.675  -5.922  0.00  0.00     0.051 C 
BRANCH  39  40
HETATM   40  C   UNK     0     -39.637  19.874  -6.408  0.00  0.00     0.114 C 
BRANCH  40  41
HETATM   41  C   UNK     0     -40.346  20.200  -7.625  0.00  0.00     0.139 C 
HETATM   42  O   UNK     0     -39.856  20.077  -8.756  0.00  0.00    -0.650 OA
BRANCH  41  43
HETATM   43  O   UNK     0     -41.680  20.689  -7.537  0.00  0.00    -0.776 OA
HETATM   44  H   UNK     0     -42.117  20.879  -8.431  0.00  0.00     0.167 HD
ENDBRANCH  41  43
ENDBRANCH  40  41
ENDBRANCH  39  40
ENDBRANCH  27  39
BRANCH  11  45
HETATM   45  C   UNK     0     -43.043  18.351   2.989  0.00  0.00     0.051 C 
BRANCH  45  46
HETATM   46  C   UNK     0     -43.779  17.085   3.239  0.00  0.00     0.114 C 
BRANCH  46  47
HETATM   47  C   UNK     0     -44.849  17.385   4.233  0.00  0.00     0.139 C 
HETATM   48  O   UNK     0     -45.998  17.596   3.821  0.00  0.00    -0.650 OA
BRANCH  47  49
HETATM   49  O   UNK     0     -44.569  17.429   5.576  0.00  0.00    -0.776 OA
HETATM   50  H   UNK     0     -45.191  17.008   6.276  0.00  0.00     0.167 HD
ENDBRANCH  47  49
ENDBRANCH  46  47
ENDBRANCH  45  46
ENDBRANCH  11  45
BRANCH  18  51
HETATM   51  C   UNK     0     -43.627  22.080  -2.885  0.00  0.00     0.051 C 
BRANCH  51  52
HETATM   52  C   UNK     0     -44.582  21.559  -3.949  0.00  0.00     0.114 C 
BRANCH  52  53
HETATM   53  C   UNK     0     -44.046  21.751  -5.310  0.00  0.00     0.139 C 
HETATM   54  O   UNK     0     -43.200  22.633  -5.526  0.00  0.00    -0.650 OA
BRANCH  53  55
HETATM   55  O   UNK     0     -44.491  20.951  -6.335  0.00  0.00    -0.776 OA
HETATM   56  H   UNK     0     -44.649  21.237  -7.272  0.00  0.00     0.167 HD
ENDBRANCH  53  55
ENDBRANCH  52  53
ENDBRANCH  51  52
ENDBRANCH  18  51
TORSDOF 16
ENDMDL
MODEL 12
REMARK VINA RESULT:      -7.2      8.958     14.518
REMARK  16 active torsions:
REMARK  status: ('A' for Active; 'I' for Inactive)
REMARK    1  A    between atoms: C_6  and  C_7 
REMARK    2  A    between atoms: C_7  and  C_8 
REMARK    3  A    between atoms: C_8  and  C_9 
REMARK    4  A    between atoms: C_9  and  O_11 
REMARK    5  A    between atoms: C_16  and  C_17 
REMARK    6  A    between atoms: C_17  and  C_18 
REMARK    7  A    between atoms: C_18  and  C_19 
REMARK    8  A    between atoms: C_19  and  O_21 
REMARK    9  A    between atoms: C_28  and  C_29 
REMARK   10  A    between atoms: C_29  and  C_30 
REMARK   11  A    between atoms: C_30  and  C_31 
REMARK   12  A    between atoms: C_31  and  O_33 
REMARK   13  A    between atoms: C_42  and  C_43 
REMARK   14  A    between atoms: C_43  and  C_44 
REMARK   15  A    between atoms: C_44  and  C_45 
REMARK   16  A    between atoms: C_45  and  O_47 
ROOT
HETATM    1  C   UNK     0     -35.517   5.501   8.521  0.00  0.00     0.051 C 
HETATM    2  C   UNK     0     -34.984   6.530   7.545  0.00  0.00    -0.031 A 
HETATM    3  C   UNK     0     -33.757   6.580   6.903  0.00  0.00     0.021 A 
HETATM    4  N   UNK     0     -33.701   7.700   6.143  0.00  0.00    -0.361 N 
HETATM    5  C   UNK     0     -34.870   8.360   6.281  0.00  0.00     0.022 A 
HETATM    6  C   UNK     0     -35.694   7.657   7.153  0.00  0.00    -0.027 A 
HETATM    7  C   UNK     0     -35.352   9.596   5.588  0.00  0.00     0.115 C 
HETATM    8  C   UNK     0     -35.074   9.696   4.099  0.00  0.00     0.021 A 
HETATM    9  N   UNK     0     -35.066   8.715   3.182  0.00  0.00    -0.361 N 
HETATM   10  C   UNK     0     -34.677   9.246   2.004  0.00  0.00     0.022 A 
HETATM   11  C   UNK     0     -34.437  10.608   2.163  0.00  0.00    -0.027 A 
HETATM   12  C   UNK     0     -34.685  10.898   3.481  0.00  0.00    -0.031 A 
HETATM   13  C   UNK     0     -34.558  12.265   4.114  0.00  0.00     0.051 C 
HETATM   14  C   UNK     0     -34.466   8.485   0.698  0.00  0.00     0.115 C 
HETATM   15  C   UNK     0     -33.396   7.408   0.779  0.00  0.00     0.021 A 
HETATM   16  N   UNK     0     -33.358   6.349   1.609  0.00  0.00    -0.361 N 
HETATM   17  C   UNK     0     -32.219   5.681   1.415  0.00  0.00     0.022 A 
HETATM   18  C   UNK     0     -31.483   6.330   0.404  0.00  0.00    -0.027 A 
HETATM   19  C   UNK     0     -32.232   7.410   0.013  0.00  0.00    -0.031 A 
HETATM   20  C   UNK     0     -31.821   8.368  -1.090  0.00  0.00     0.051 C 
HETATM   21  C   UNK     0     -31.666   4.472   2.136  0.00  0.00     0.115 C 
HETATM   22  C   UNK     0     -31.973   4.338   3.609  0.00  0.00     0.022 A 
HETATM   23  N   UNK     0     -31.991   5.297   4.544  0.00  0.00    -0.361 N 
HETATM   24  C   UNK     0     -32.456   4.762   5.691  0.00  0.00     0.021 A 
HETATM   25  C   UNK     0     -32.734   3.423   5.493  0.00  0.00    -0.031 A 
HETATM   26  C   UNK     0     -33.235   2.396   6.487  0.00  0.00     0.051 C 
HETATM   27  C   UNK     0     -32.432   3.128   4.168  0.00  0.00    -0.027 A 
HETATM   28  C   UNK     0     -32.743   5.476   7.001  0.00  0.00     0.115 C 
HETATM   29  H   UNK     0     -32.822   8.037   5.547  0.00  0.00     0.165 HD
HETATM   30  H   UNK     0     -35.383   7.657   3.353  0.00  0.00     0.165 HD
HETATM   31  H   UNK     0     -34.173   6.038   2.313  0.00  0.00     0.165 HD
HETATM   32  H   UNK     0     -31.635   6.352   4.414  0.00  0.00     0.165 HD
ENDROOT
BRANCH   6  33
HETATM   33  C   UNK     0     -37.087   7.973   7.639  0.00  0.00     0.051 C 
BRANCH  33  34
HETATM   34  C   UNK     0     -37.821   8.832   6.636  0.00  0.00     0.114 C 
BRANCH  34  35
HETATM   35  C   UNK     0     -38.017  10.173   7.257  0.00  0.00     0.139 C 
HETATM   36  O   UNK     0     -38.200  11.192   6.529  0.00  0.00    -0.650 OA
BRANCH  35  37
HETATM   37  O   UNK     0     -38.013  10.370   8.633  0.00  0.00    -0.776 OA
HETATM   38  H   UNK     0     -37.306  10.922   9.091  0.00  0.00     0.167 HD
ENDBRANCH  35  37
ENDBRANCH  34  35
ENDBRANCH  33  34
ENDBRANCH   6  33
BRANCH  27  39
HETATM   39  C   UNK     0     -32.536   1.757   3.599  0.00  0.00     0.051 C 
BRANCH  39  40
HETATM   40  C   UNK     0     -31.332   0.927   3.563  0.00  0.00     0.114 C 
BRANCH  40  41
HETATM   41  C   UNK     0     -31.388  -0.515   3.637  0.00  0.00     0.139 C 
HETATM   42  O   UNK     0     -31.794  -1.134   4.630  0.00  0.00    -0.650 OA
BRANCH  41  43
HETATM   43  O   UNK     0     -30.956  -1.282   2.518  0.00  0.00    -0.776 OA
HETATM   44  H   UNK     0     -30.504  -0.743   1.790  0.00  0.00     0.167 HD
ENDBRANCH  41  43
ENDBRANCH  40  41
ENDBRANCH  39  40
ENDBRANCH  27  39
BRANCH  11  45
HETATM   45  C   UNK     0     -33.994  11.613   1.134  0.00  0.00     0.051 C 
BRANCH  45  46
HETATM   46  C   UNK     0     -32.592  11.436   0.677  0.00  0.00     0.114 C 
BRANCH  46  47
HETATM   47  C   UNK     0     -31.733  12.285   1.550  0.00  0.00     0.139 C 
HETATM   48  O   UNK     0     -32.140  13.412   1.866  0.00  0.00    -0.650 OA
BRANCH  47  49
HETATM   49  O   UNK     0     -30.516  11.831   1.994  0.00  0.00    -0.776 OA
HETATM   50  H   UNK     0     -29.631  12.240   1.671  0.00  0.00     0.167 HD
ENDBRANCH  47  49
ENDBRANCH  46  47
ENDBRANCH  45  46
ENDBRANCH  11  45
BRANCH  18  51
HETATM   51  C   UNK     0     -30.150   5.932  -0.173  0.00  0.00     0.051 C 
BRANCH  51  52
HETATM   52  C   UNK     0     -29.116   6.841   0.475  0.00  0.00     0.114 C 
BRANCH  52  53
HETATM   53  C   UNK     0     -27.756   6.574  -0.030  0.00  0.00     0.139 C 
HETATM   54  O   UNK     0     -26.777   6.701   0.723  0.00  0.00    -0.650 OA
BRANCH  53  55
HETATM   55  O   UNK     0     -27.579   6.189  -1.337  0.00  0.00    -0.776 OA
HETATM   56  H   UNK     0     -26.776   6.362  -1.893  0.00  0.00     0.167 HD
ENDBRANCH  53  55
ENDBRANCH  52  53
ENDBRANCH  51  52
ENDBRANCH  18  51
TORSDOF 16
ENDMDL
MODEL 13
REMARK VINA RESULT:      -7.1      2.499      7.625
REMARK  16 active torsions:
REMARK  status: ('A' for Active; 'I' for Inactive)
REMARK    1  A    between atoms: C_6  and  C_7 
REMARK    2  A    between atoms: C_7  and  C_8 
REMARK    3  A    between atoms: C_8  and  C_9 
REMARK    4  A    between atoms: C_9  and  O_11 
REMARK    5  A    between atoms: C_16  and  C_17 
REMARK    6  A    between atoms: C_17  and  C_18 
REMARK    7  A    between atoms: C_18  and  C_19 
REMARK    8  A    between atoms: C_19  and  O_21 
REMARK    9  A    between atoms: C_28  and  C_29 
REMARK   10  A    between atoms: C_29  and  C_30 
REMARK   11  A    between atoms: C_30  and  C_31 
REMARK   12  A    between atoms: C_31  and  O_33 
REMARK   13  A    between atoms: C_42  and  C_43 
REMARK   14  A    between atoms: C_43  and  C_44 
REMARK   15  A    between atoms: C_44  and  C_45 
REMARK   16  A    between atoms: C_45  and  O_47 
ROOT
HETATM    1  C   UNK     0     -46.421  18.927   1.337  0.00  0.00     0.051 C 
HETATM    2  C   UNK     0     -45.291  19.566   0.556  0.00  0.00    -0.031 A 
HETATM    3  C   UNK     0     -44.112  20.130   1.016  0.00  0.00     0.021 A 
HETATM    4  N   UNK     0     -43.410  20.609  -0.038  0.00  0.00    -0.361 N 
HETATM    5  C   UNK     0     -44.112  20.355  -1.162  0.00  0.00     0.022 A 
HETATM    6  C   UNK     0     -45.296  19.706  -0.826  0.00  0.00    -0.027 A 
HETATM    7  C   UNK     0     -43.740  20.594  -2.592  0.00  0.00     0.115 C 
HETATM    8  C   UNK     0     -42.315  20.252  -2.991  0.00  0.00     0.021 A 
HETATM    9  N   UNK     0     -41.542  19.248  -2.552  0.00  0.00    -0.361 N 
HETATM   10  C   UNK     0     -40.320  19.385  -3.109  0.00  0.00     0.022 A 
HETATM   11  C   UNK     0     -40.309  20.503  -3.938  0.00  0.00    -0.027 A 
HETATM   12  C   UNK     0     -41.563  21.054  -3.868  0.00  0.00    -0.031 A 
HETATM   13  C   UNK     0     -42.018  22.289  -4.613  0.00  0.00     0.051 C 
HETATM   14  C   UNK     0     -39.104  18.503  -2.843  0.00  0.00     0.115 C 
HETATM   15  C   UNK     0     -38.647  18.504  -1.393  0.00  0.00     0.021 A 
HETATM   16  N   UNK     0     -39.361  18.152  -0.307  0.00  0.00    -0.361 N 
HETATM   17  C   UNK     0     -38.625  18.361   0.787  0.00  0.00     0.022 A 
HETATM   18  C   UNK     0     -37.368  18.863   0.395  0.00  0.00    -0.027 A 
HETATM   19  C   UNK     0     -37.395  18.947  -0.973  0.00  0.00    -0.031 A 
HETATM   20  C   UNK     0     -36.218  19.411  -1.813  0.00  0.00     0.051 C 
HETATM   21  C   UNK     0     -38.985  18.196   2.246  0.00  0.00     0.115 C 
HETATM   22  C   UNK     0     -40.411  18.489   2.650  0.00  0.00     0.022 A 
HETATM   23  N   UNK     0     -41.206  19.480   2.226  0.00  0.00    -0.361 N 
HETATM   24  C   UNK     0     -42.440  19.279   2.733  0.00  0.00     0.021 A 
HETATM   25  C   UNK     0     -42.435  18.137   3.511  0.00  0.00    -0.031 A 
HETATM   26  C   UNK     0     -43.565  17.528   4.315  0.00  0.00     0.051 C 
HETATM   27  C   UNK     0     -41.148  17.614   3.474  0.00  0.00    -0.027 A 
HETATM   28  C   UNK     0     -43.699  20.084   2.460  0.00  0.00     0.115 C 
HETATM   29  H   UNK     0     -42.442  21.158   0.022  0.00  0.00     0.165 HD
HETATM   30  H   UNK     0     -41.869  18.412  -1.887  0.00  0.00     0.165 HD
HETATM   31  H   UNK     0     -40.388  17.703  -0.315  0.00  0.00     0.165 HD
HETATM   32  H   UNK     0     -40.894  20.355   1.599  0.00  0.00     0.165 HD
ENDROOT
BRANCH   6  33
HETATM   33  C   UNK     0     -46.418  19.217  -1.707  0.00  0.00     0.051 C 
BRANCH  33  34
HETATM   34  C   UNK     0     -46.161  17.800  -2.163  0.00  0.00     0.114 C 
BRANCH  34  35
HETATM   35  C   UNK     0     -47.458  17.067  -2.092  0.00  0.00     0.139 C 
HETATM   36  O   UNK     0     -47.877  16.415  -3.092  0.00  0.00    -0.650 OA
BRANCH  35  37
HETATM   37  O   UNK     0     -48.252  17.058  -0.952  0.00  0.00    -0.776 OA
HETATM   38  H   UNK     0     -47.958  17.494  -0.093  0.00  0.00     0.167 HD
ENDBRANCH  35  37
ENDBRANCH  34  35
ENDBRANCH  33  34
ENDBRANCH   6  33
BRANCH  27  39
HETATM   39  C   UNK     0     -40.737  16.416   4.255  0.00  0.00     0.051 C 
BRANCH  39  40
HETATM   40  C   UNK     0     -40.672  15.127   3.566  0.00  0.00     0.114 C 
BRANCH  40  41
HETATM   41  C   UNK     0     -40.135  13.943   4.197  0.00  0.00     0.139 C 
HETATM   42  O   UNK     0     -38.923  13.704   4.285  0.00  0.00    -0.650 OA
BRANCH  41  43
HETATM   43  O   UNK     0     -41.034  12.988   4.752  0.00  0.00    -0.776 OA
HETATM   44  H   UNK     0     -41.095  12.120   4.235  0.00  0.00     0.167 HD
ENDBRANCH  41  43
ENDBRANCH  40  41
ENDBRANCH  39  40
ENDBRANCH  27  39
BRANCH  11  45
HETATM   45  C   UNK     0     -39.180  21.047  -4.772  0.00  0.00     0.051 C 
BRANCH  45  46
HETATM   46  C   UNK     0     -38.870  20.234  -5.975  0.00  0.00     0.114 C 
BRANCH  46  47
HETATM   47  C   UNK     0     -39.795  20.677  -7.058  0.00  0.00     0.139 C 
HETATM   48  O   UNK     0     -39.642  21.808  -7.542  0.00  0.00    -0.650 OA
BRANCH  47  49
HETATM   49  O   UNK     0     -40.795  19.853  -7.509  0.00  0.00    -0.776 OA
HETATM   50  H   UNK     0     -41.287  19.202  -6.886  0.00  0.00     0.167 HD
ENDBRANCH  47  49
ENDBRANCH  46  47
ENDBRANCH  45  46
ENDBRANCH  11  45
BRANCH  18  51
HETATM   51  C   UNK     0     -36.199  19.223   1.274  0.00  0.00     0.051 C 
BRANCH  51  52
HETATM   52  C   UNK     0     -35.214  18.069   1.167  0.00  0.00     0.114 C 
BRANCH  52  53
HETATM   53  C   UNK     0     -35.426  17.065   2.228  0.00  0.00     0.139 C 
HETATM   54  O   UNK     0     -35.207  15.865   2.001  0.00  0.00    -0.650 OA
BRANCH  53  55
HETATM   55  O   UNK     0     -35.869  17.467   3.465  0.00  0.00    -0.776 OA
HETATM   56  H   UNK     0     -36.772  17.302   3.844  0.00  0.00     0.167 HD
ENDBRANCH  53  55
ENDBRANCH  52  53
ENDBRANCH  51  52
ENDBRANCH  18  51
TORSDOF 16
ENDMDL
MODEL 14
REMARK VINA RESULT:      -7.1      2.775      7.879
REMARK  16 active torsions:
REMARK  status: ('A' for Active; 'I' for Inactive)
REMARK    1  A    between atoms: C_6  and  C_7 
REMARK    2  A    between atoms: C_7  and  C_8 
REMARK    3  A    between atoms: C_8  and  C_9 
REMARK    4  A    between atoms: C_9  and  O_11 
REMARK    5  A    between atoms: C_16  and  C_17 
REMARK    6  A    between atoms: C_17  and  C_18 
REMARK    7  A    between atoms: C_18  and  C_19 
REMARK    8  A    between atoms: C_19  and  O_21 
REMARK    9  A    between atoms: C_28  and  C_29 
REMARK   10  A    between atoms: C_29  and  C_30 
REMARK   11  A    between atoms: C_30  and  C_31 
REMARK   12  A    between atoms: C_31  and  O_33 
REMARK   13  A    between atoms: C_42  and  C_43 
REMARK   14  A    between atoms: C_43  and  C_44 
REMARK   15  A    between atoms: C_44  and  C_45 
REMARK   16  A    between atoms: C_45  and  O_47 
ROOT
HETATM    1  C   UNK     0     -43.287  20.874  -4.000  0.00  0.00     0.051 C 
HETATM    2  C   UNK     0     -41.819  21.165  -3.765  0.00  0.00    -0.031 A 
HETATM    3  C   UNK     0     -41.137  21.341  -2.572  0.00  0.00     0.021 A 
HETATM    4  N   UNK     0     -39.838  21.614  -2.842  0.00  0.00    -0.361 N 
HETATM    5  C   UNK     0     -39.676  21.606  -4.181  0.00  0.00     0.022 A 
HETATM    6  C   UNK     0     -40.896  21.332  -4.790  0.00  0.00    -0.027 A 
HETATM    7  C   UNK     0     -38.425  21.757  -4.989  0.00  0.00     0.115 C 
HETATM    8  C   UNK     0     -37.198  21.016  -4.489  0.00  0.00     0.021 A 
HETATM    9  N   UNK     0     -37.131  19.817  -3.891  0.00  0.00    -0.361 N 
HETATM   10  C   UNK     0     -35.847  19.597  -3.535  0.00  0.00     0.022 A 
HETATM   11  C   UNK     0     -35.064  20.680  -3.924  0.00  0.00    -0.027 A 
HETATM   12  C   UNK     0     -35.909  21.578  -4.526  0.00  0.00    -0.031 A 
HETATM   13  C   UNK     0     -35.495  22.909  -5.113  0.00  0.00     0.051 C 
HETATM   14  C   UNK     0     -35.318  18.386  -2.771  0.00  0.00     0.115 C 
HETATM   15  C   UNK     0     -35.926  18.219  -1.387  0.00  0.00     0.021 A 
HETATM   16  N   UNK     0     -37.227  18.070  -1.074  0.00  0.00    -0.361 N 
HETATM   17  C   UNK     0     -37.355  18.025   0.254  0.00  0.00     0.022 A 
HETATM   18  C   UNK     0     -36.076  18.139   0.833  0.00  0.00    -0.027 A 
HETATM   19  C   UNK     0     -35.189  18.259  -0.205  0.00  0.00    -0.031 A 
HETATM   20  C   UNK     0     -33.687  18.370  -0.024  0.00  0.00     0.051 C 
HETATM   21  C   UNK     0     -38.600  17.941   1.108  0.00  0.00     0.115 C 
HETATM   22  C   UNK     0     -39.842  18.636   0.601  0.00  0.00     0.022 A 
HETATM   23  N   UNK     0     -39.938  19.828  -0.003  0.00  0.00    -0.361 N 
HETATM   24  C   UNK     0     -41.210  19.992  -0.418  0.00  0.00     0.021 A 
HETATM   25  C   UNK     0     -41.954  18.883  -0.063  0.00  0.00    -0.031 A 
HETATM   26  C   UNK     0     -43.431  18.619  -0.274  0.00  0.00     0.051 C 
HETATM   27  C   UNK     0     -41.100  18.002   0.590  0.00  0.00    -0.027 A 
HETATM   28  C   UNK     0     -41.782  21.141  -1.230  0.00  0.00     0.115 C 
HETATM   29  H   UNK     0     -39.054  21.849  -2.086  0.00  0.00     0.165 HD
HETATM   30  H   UNK     0     -37.979  19.101  -3.762  0.00  0.00     0.165 HD
HETATM   31  H   UNK     0     -38.067  17.947  -1.805  0.00  0.00     0.165 HD
HETATM   32  H   UNK     0     -39.116  20.585  -0.104  0.00  0.00     0.165 HD
ENDROOT
BRANCH   6  33
HETATM   33  C   UNK     0     -41.248  21.219  -6.252  0.00  0.00     0.051 C 
BRANCH  33  34
HETATM   34  C   UNK     0     -40.423  20.144  -6.919  0.00  0.00     0.114 C 
BRANCH  34  35
HETATM   35  C   UNK     0     -40.706  20.208  -8.382  0.00  0.00     0.139 C 
HETATM   36  O   UNK     0     -39.757  20.159  -9.217  0.00  0.00    -0.650 OA
BRANCH  35  37
HETATM   37  O   UNK     0     -41.994  20.320  -8.891  0.00  0.00    -0.776 OA
HETATM   38  H   UNK     0     -42.169  20.580  -9.849  0.00  0.00     0.167 HD
ENDBRANCH  35  37
ENDBRANCH  34  35
ENDBRANCH  33  34
ENDBRANCH   6  33
BRANCH  27  39
HETATM   39  C   UNK     0     -41.561  16.718   1.185  0.00  0.00     0.051 C 
BRANCH  39  40
HETATM   40  C   UNK     0     -41.837  16.678   2.621  0.00  0.00     0.114 C 
BRANCH  40  41
HETATM   41  C   UNK     0     -40.925  16.069   3.564  0.00  0.00     0.139 C 
HETATM   42  O   UNK     0     -39.986  16.676   4.095  0.00  0.00    -0.650 OA
BRANCH  41  43
HETATM   43  O   UNK     0     -41.103  14.699   3.910  0.00  0.00    -0.776 OA
HETATM   44  H   UNK     0     -42.038  14.463   4.221  0.00  0.00     0.167 HD
ENDBRANCH  41  43
ENDBRANCH  40  41
ENDBRANCH  39  40
ENDBRANCH  27  39
BRANCH  11  45
HETATM   45  C   UNK     0     -33.583  20.882  -3.750  0.00  0.00     0.051 C 
BRANCH  45  46
HETATM   46  C   UNK     0     -33.200  21.453  -2.433  0.00  0.00     0.114 C 
BRANCH  46  47
HETATM   47  C   UNK     0     -32.842  22.883  -2.659  0.00  0.00     0.139 C 
HETATM   48  O   UNK     0     -33.483  23.756  -2.059  0.00  0.00    -0.650 OA
BRANCH  47  49
HETATM   49  O   UNK     0     -31.825  23.225  -3.515  0.00  0.00    -0.776 OA
HETATM   50  H   UNK     0     -31.140  22.538  -3.851  0.00  0.00     0.167 HD
ENDBRANCH  47  49
ENDBRANCH  46  47
ENDBRANCH  45  46
ENDBRANCH  11  45
BRANCH  18  51
HETATM   51  C   UNK     0     -35.716  18.115   2.296  0.00  0.00     0.051 C 
BRANCH  51  52
HETATM   52  C   UNK     0     -35.516  16.651   2.661  0.00  0.00     0.114 C 
BRANCH  52  53
HETATM   53  C   UNK     0     -34.265  16.438   3.414  0.00  0.00     0.139 C 
HETATM   54  O   UNK     0     -34.278  16.446   4.655  0.00  0.00    -0.650 OA
BRANCH  53  55
HETATM   55  O   UNK     0     -33.089  16.235   2.734  0.00  0.00    -0.776 OA
HETATM   56  H   UNK     0     -32.189  16.545   3.017  0.00  0.00     0.167 HD
ENDBRANCH  53  55
ENDBRANCH  52  53
ENDBRANCH  51  52
ENDBRANCH  18  51
TORSDOF 16
ENDMDL
MODEL 15
REMARK VINA RESULT:      -7.0      3.350      8.351
REMARK  16 active torsions:
REMARK  status: ('A' for Active; 'I' for Inactive)
REMARK    1  A    between atoms: C_6  and  C_7 
REMARK    2  A    between atoms: C_7  and  C_8 
REMARK    3  A    between atoms: C_8  and  C_9 
REMARK    4  A    between atoms: C_9  and  O_11 
REMARK    5  A    between atoms: C_16  and  C_17 
REMARK    6  A    between atoms: C_17  and  C_18 
REMARK    7  A    between atoms: C_18  and  C_19 
REMARK    8  A    between atoms: C_19  and  O_21 
REMARK    9  A    between atoms: C_28  and  C_29 
REMARK   10  A    between atoms: C_29  and  C_30 
REMARK   11  A    between atoms: C_30  and  C_31 
REMARK   12  A    between atoms: C_31  and  O_33 
REMARK   13  A    between atoms: C_42  and  C_43 
REMARK   14  A    between atoms: C_43  and  C_44 
REMARK   15  A    between atoms: C_44  and  C_45 
REMARK   16  A    between atoms: C_45  and  O_47 
ROOT
HETATM    1  C   UNK     0     -42.740  21.424  -7.458  0.00  0.00     0.051 C 
HETATM    2  C   UNK     0     -41.586  21.413  -6.476  0.00  0.00    -0.031 A 
HETATM    3  C   UNK     0     -41.527  21.905  -5.182  0.00  0.00     0.021 A 
HETATM    4  N   UNK     0     -40.281  21.705  -4.690  0.00  0.00    -0.361 N 
HETATM    5  C   UNK     0     -39.548  21.088  -5.639  0.00  0.00     0.022 A 
HETATM    6  C   UNK     0     -40.332  20.893  -6.771  0.00  0.00    -0.027 A 
HETATM    7  C   UNK     0     -38.147  20.564  -5.569  0.00  0.00     0.115 C 
HETATM    8  C   UNK     0     -37.758  19.827  -4.300  0.00  0.00     0.021 A 
HETATM    9  N   UNK     0     -38.512  19.023  -3.535  0.00  0.00    -0.361 N 
HETATM   10  C   UNK     0     -37.782  18.664  -2.458  0.00  0.00     0.022 A 
HETATM   11  C   UNK     0     -36.520  19.246  -2.535  0.00  0.00    -0.027 A 
HETATM   12  C   UNK     0     -36.498  19.980  -3.693  0.00  0.00    -0.031 A 
HETATM   13  C   UNK     0     -35.321  20.786  -4.195  0.00  0.00     0.051 C 
HETATM   14  C   UNK     0     -38.261  17.805  -1.290  0.00  0.00     0.115 C 
HETATM   15  C   UNK     0     -39.436  18.399  -0.530  0.00  0.00     0.021 A 
HETATM   16  N   UNK     0     -40.648  18.727  -1.016  0.00  0.00    -0.361 N 
HETATM   17  C   UNK     0     -41.374  19.285  -0.045  0.00  0.00     0.022 A 
HETATM   18  C   UNK     0     -40.601  19.313   1.133  0.00  0.00    -0.027 A 
HETATM   19  C   UNK     0     -39.390  18.754   0.816  0.00  0.00    -0.031 A 
HETATM   20  C   UNK     0     -38.265  18.556   1.816  0.00  0.00     0.051 C 
HETATM   21  C   UNK     0     -42.761  19.884  -0.090  0.00  0.00     0.115 C 
HETATM   22  C   UNK     0     -43.178  20.582  -1.364  0.00  0.00     0.022 A 
HETATM   23  N   UNK     0     -42.447  21.385  -2.148  0.00  0.00    -0.361 N 
HETATM   24  C   UNK     0     -43.166  21.667  -3.253  0.00  0.00     0.021 A 
HETATM   25  C   UNK     0     -44.393  21.038  -3.174  0.00  0.00    -0.031 A 
HETATM   26  C   UNK     0     -45.553  21.085  -4.147  0.00  0.00     0.051 C 
HETATM   27  C   UNK     0     -44.425  20.337  -1.974  0.00  0.00    -0.027 A 
HETATM   28  C   UNK     0     -42.726  22.463  -4.470  0.00  0.00     0.115 C 
HETATM   29  H   UNK     0     -39.918  22.037  -3.690  0.00  0.00     0.165 HD
HETATM   30  H   UNK     0     -39.542  18.665  -3.778  0.00  0.00     0.165 HD
HETATM   31  H   UNK     0     -41.016  18.517  -2.054  0.00  0.00     0.165 HD
HETATM   32  H   UNK     0     -41.432  21.797  -1.908  0.00  0.00     0.165 HD
ENDROOT
BRANCH   6  33
HETATM   33  C   UNK     0     -39.985  20.259  -8.095  0.00  0.00     0.051 C 
BRANCH  33  34
HETATM   34  C   UNK     0     -39.576  21.310  -9.099  0.00  0.00     0.114 C 
BRANCH  34  35
HETATM   35  C   UNK     0     -39.994  20.826 -10.447  0.00  0.00     0.139 C 
HETATM   36  O   UNK     0     -39.126  20.595 -11.338  0.00  0.00    -0.650 OA
BRANCH  35  37
HETATM   37  O   UNK     0     -41.324  20.607 -10.785  0.00  0.00    -0.776 OA
HETATM   38  H   UNK     0     -41.708  20.907 -11.666  0.00  0.00     0.167 HD
ENDBRANCH  35  37
ENDBRANCH  34  35
ENDBRANCH  33  34
ENDBRANCH   6  33
BRANCH  27  39
HETATM   39  C   UNK     0     -45.621  19.588  -1.503  0.00  0.00     0.051 C 
BRANCH  39  40
HETATM   40  C   UNK     0     -45.681  18.148  -1.752  0.00  0.00     0.114 C 
BRANCH  40  41
HETATM   41  C   UNK     0     -46.759  17.539  -2.498  0.00  0.00     0.139 C 
HETATM   42  O   UNK     0     -47.681  16.902  -1.970  0.00  0.00    -0.650 OA
BRANCH  41  43
HETATM   43  O   UNK     0     -46.778  17.668  -3.916  0.00  0.00    -0.776 OA
HETATM   44  H   UNK     0     -47.565  17.217  -4.367  0.00  0.00     0.167 HD
ENDBRANCH  41  43
ENDBRANCH  40  41
ENDBRANCH  39  40
ENDBRANCH  27  39
BRANCH  11  45
HETATM   45  C   UNK     0     -35.368  19.128  -1.574  0.00  0.00     0.051 C 
BRANCH  45  46
HETATM   46  C   UNK     0     -34.519  17.929  -1.790  0.00  0.00     0.114 C 
BRANCH  46  47
HETATM   47  C   UNK     0     -34.493  17.169  -0.507  0.00  0.00     0.139 C 
HETATM   48  O   UNK     0     -35.245  16.192  -0.383  0.00  0.00    -0.650 OA
BRANCH  47  49
HETATM   49  O   UNK     0     -33.658  17.543   0.515  0.00  0.00    -0.776 OA
HETATM   50  H   UNK     0     -33.941  17.483   1.500  0.00  0.00     0.167 HD
ENDBRANCH  47  49
ENDBRANCH  46  47
ENDBRANCH  45  46
ENDBRANCH  11  45
BRANCH  18  51
HETATM   51  C   UNK     0     -41.003  19.825   2.492  0.00  0.00     0.051 C 
BRANCH  51  52
HETATM   52  C   UNK     0     -41.772  18.697   3.162  0.00  0.00     0.114 C 
BRANCH  52  53
HETATM   53  C   UNK     0     -41.060  18.172   4.343  0.00  0.00     0.139 C 
HETATM   54  O   UNK     0     -40.108  18.804   4.827  0.00  0.00    -0.650 OA
BRANCH  53  55
HETATM   55  O   UNK     0     -41.454  16.979   4.900  0.00  0.00    -0.776 OA
HETATM   56  H   UNK     0     -41.702  16.156   4.402  0.00  0.00     0.167 HD
ENDBRANCH  53  55
ENDBRANCH  52  53
ENDBRANCH  51  52
ENDBRANCH  18  51
TORSDOF 16
ENDMDL
MODEL 16
REMARK VINA RESULT:      -7.0      3.145      8.061
REMARK  16 active torsions:
REMARK  status: ('A' for Active; 'I' for Inactive)
REMARK    1  A    between atoms: C_6  and  C_7 
REMARK    2  A    between atoms: C_7  and  C_8 
REMARK    3  A    between atoms: C_8  and  C_9 
REMARK    4  A    between atoms: C_9  and  O_11 
REMARK    5  A    between atoms: C_16  and  C_17 
REMARK    6  A    between atoms: C_17  and  C_18 
REMARK    7  A    between atoms: C_18  and  C_19 
REMARK    8  A    between atoms: C_19  and  O_21 
REMARK    9  A    between atoms: C_28  and  C_29 
REMARK   10  A    between atoms: C_29  and  C_30 
REMARK   11  A    between atoms: C_30  and  C_31 
REMARK   12  A    between atoms: C_31  and  O_33 
REMARK   13  A    between atoms: C_42  and  C_43 
REMARK   14  A    between atoms: C_43  and  C_44 
REMARK   15  A    between atoms: C_44  and  C_45 
REMARK   16  A    between atoms: C_45  and  O_47 
ROOT
HETATM    1  C   UNK     0     -33.813  21.431  -3.042  0.00  0.00     0.051 C 
HETATM    2  C   UNK     0     -34.980  21.177  -2.110  0.00  0.00    -0.031 A 
HETATM    3  C   UNK     0     -36.163  21.886  -1.969  0.00  0.00     0.021 A 
HETATM    4  N   UNK     0     -36.905  21.315  -0.990  0.00  0.00    -0.361 N 
HETATM    5  C   UNK     0     -36.224  20.253  -0.510  0.00  0.00     0.022 A 
HETATM    6  C   UNK     0     -35.014  20.140  -1.187  0.00  0.00    -0.027 A 
HETATM    7  C   UNK     0     -36.639  19.237   0.507  0.00  0.00     0.115 C 
HETATM    8  C   UNK     0     -38.063  18.719   0.410  0.00  0.00     0.021 A 
HETATM    9  N   UNK     0     -38.797  18.488  -0.690  0.00  0.00    -0.361 N 
HETATM   10  C   UNK     0     -40.036  18.122  -0.298  0.00  0.00     0.022 A 
HETATM   11  C   UNK     0     -40.099  18.106   1.092  0.00  0.00    -0.027 A 
HETATM   12  C   UNK     0     -38.860  18.481   1.545  0.00  0.00    -0.031 A 
HETATM   13  C   UNK     0     -38.460  18.600   2.998  0.00  0.00     0.051 C 
HETATM   14  C   UNK     0     -41.219  17.824  -1.215  0.00  0.00     0.115 C 
HETATM   15  C   UNK     0     -41.639  19.002  -2.081  0.00  0.00     0.021 A 
HETATM   16  N   UNK     0     -40.888  19.672  -2.974  0.00  0.00    -0.361 N 
HETATM   17  C   UNK     0     -41.601  20.684  -3.475  0.00  0.00     0.022 A 
HETATM   18  C   UNK     0     -42.881  20.665  -2.886  0.00  0.00    -0.027 A 
HETATM   19  C   UNK     0     -42.892  19.606  -2.016  0.00  0.00    -0.031 A 
HETATM   20  C   UNK     0     -44.102  19.203  -1.193  0.00  0.00     0.051 C 
HETATM   21  C   UNK     0     -41.199  21.767  -4.450  0.00  0.00     0.115 C 
HETATM   22  C   UNK     0     -39.773  22.261  -4.394  0.00  0.00     0.022 A 
HETATM   23  N   UNK     0     -39.017  22.495  -3.314  0.00  0.00    -0.361 N 
HETATM   24  C   UNK     0     -37.766  22.783  -3.727  0.00  0.00     0.021 A 
HETATM   25  C   UNK     0     -37.718  22.744  -5.107  0.00  0.00    -0.031 A 
HETATM   26  C   UNK     0     -36.552  23.034  -6.029  0.00  0.00     0.051 C 
HETATM   27  C   UNK     0     -38.991  22.412  -5.557  0.00  0.00    -0.027 A 
HETATM   28  C   UNK     0     -36.538  23.030  -2.868  0.00  0.00     0.115 C 
HETATM   29  H   UNK     0     -37.886  21.690  -0.617  0.00  0.00     0.165 HD
HETATM   30  H   UNK     0     -38.429  18.535  -1.744  0.00  0.00     0.165 HD
HETATM   31  H   UNK     0     -39.849  19.398  -3.295  0.00  0.00     0.165 HD
HETATM   32  H   UNK     0     -39.370  22.502  -2.250  0.00  0.00     0.165 HD
ENDROOT
BRANCH   6  33
HETATM   33  C   UNK     0     -33.902  19.135  -1.024  0.00  0.00     0.051 C 
BRANCH  33  34
HETATM   34  C   UNK     0     -34.195  17.880  -1.811  0.00  0.00     0.114 C 
BRANCH  34  35
HETATM   35  C   UNK     0     -34.538  16.809  -0.832  0.00  0.00     0.139 C 
HETATM   36  O   UNK     0     -33.717  16.489   0.076  0.00  0.00    -0.650 OA
BRANCH  35  37
HETATM   37  O   UNK     0     -35.748  16.126  -0.861  0.00  0.00    -0.776 OA
HETATM   38  H   UNK     0     -36.525  16.389  -0.277  0.00  0.00     0.167 HD
ENDBRANCH  35  37
ENDBRANCH  34  35
ENDBRANCH  33  34
ENDBRANCH   6  33
BRANCH  27  39
HETATM   39  C   UNK     0     -39.347  22.344  -7.000  0.00  0.00     0.051 C 
BRANCH  39  40
HETATM   40  C   UNK     0     -39.593  21.029  -7.593  0.00  0.00     0.114 C 
BRANCH  40  41
HETATM   41  C   UNK     0     -40.906  20.616  -8.035  0.00  0.00     0.139 C 
HETATM   42  O   UNK     0     -41.916  21.325  -7.932  0.00  0.00    -0.650 OA
BRANCH  41  43
HETATM   43  O   UNK     0     -41.064  19.328  -8.621  0.00  0.00    -0.776 OA
HETATM   44  H   UNK     0     -41.302  18.595  -7.964  0.00  0.00     0.167 HD
ENDBRANCH  41  43
ENDBRANCH  40  41
ENDBRANCH  39  40
ENDBRANCH  27  39
BRANCH  11  45
HETATM   45  C   UNK     0     -41.264  17.754   1.978  0.00  0.00     0.051 C 
BRANCH  45  46
HETATM   46  C   UNK     0     -41.396  16.302   2.257  0.00  0.00     0.114 C 
BRANCH  46  47
HETATM   47  C   UNK     0     -40.994  16.086   3.676  0.00  0.00     0.139 C 
HETATM   48  O   UNK     0     -39.996  15.389   3.909  0.00  0.00    -0.650 OA
BRANCH  47  49
HETATM   49  O   UNK     0     -41.712  16.645   4.703  0.00  0.00    -0.776 OA
HETATM   50  H   UNK     0     -42.296  16.080   5.330  0.00  0.00     0.167 HD
ENDBRANCH  47  49
ENDBRANCH  46  47
ENDBRANCH  45  46
ENDBRANCH  11  45
BRANCH  18  51
HETATM   51  C   UNK     0     -44.037  21.593  -3.154  0.00  0.00     0.051 C 
BRANCH  51  52
HETATM   52  C   UNK     0     -44.844  20.956  -4.276  0.00  0.00     0.114 C 
BRANCH  52  53
HETATM   53  C   UNK     0     -44.657  21.664  -5.557  0.00  0.00     0.139 C 
HETATM   54  O   UNK     0     -44.657  22.905  -5.587  0.00  0.00    -0.650 OA
BRANCH  53  55
HETATM   55  O   UNK     0     -44.488  20.943  -6.714  0.00  0.00    -0.776 OA
HETATM   56  H   UNK     0     -44.525  21.304  -7.638  0.00  0.00     0.167 HD
ENDBRANCH  53  55
ENDBRANCH  52  53
ENDBRANCH  51  52
ENDBRANCH  18  51
TORSDOF 16
ENDMDL
MODEL 17
REMARK VINA RESULT:      -7.0     14.487     20.343
REMARK  16 active torsions:
REMARK  status: ('A' for Active; 'I' for Inactive)
REMARK    1  A    between atoms: C_6  and  C_7 
REMARK    2  A    between atoms: C_7  and  C_8 
REMARK    3  A    between atoms: C_8  and  C_9 
REMARK    4  A    between atoms: C_9  and  O_11 
REMARK    5  A    between atoms: C_16  and  C_17 
REMARK    6  A    between atoms: C_17  and  C_18 
REMARK    7  A    between atoms: C_18  and  C_19 
REMARK    8  A    between atoms: C_19  and  O_21 
REMARK    9  A    between atoms: C_28  and  C_29 
REMARK   10  A    between atoms: C_29  and  C_30 
REMARK   11  A    between atoms: C_30  and  C_31 
REMARK   12  A    between atoms: C_31  and  O_33 
REMARK   13  A    between atoms: C_42  and  C_43 
REMARK   14  A    between atoms: C_43  and  C_44 
REMARK   15  A    between atoms: C_44  and  C_45 
REMARK   16  A    between atoms: C_45  and  O_47 
ROOT
HETATM    1  C   UNK     0     -22.255  14.448  12.522  0.00  0.00     0.051 C 
HETATM    2  C   UNK     0     -22.652  15.723  11.806  0.00  0.00    -0.031 A 
HETATM    3  C   UNK     0     -23.870  16.074  11.245  0.00  0.00     0.021 A 
HETATM    4  N   UNK     0     -23.759  17.300  10.681  0.00  0.00    -0.361 N 
HETATM    5  C   UNK     0     -22.499  17.742  10.879  0.00  0.00     0.022 A 
HETATM    6  C   UNK     0     -21.779  16.779  11.577  0.00  0.00    -0.027 A 
HETATM    7  C   UNK     0     -21.891  19.067  10.538  0.00  0.00     0.115 C 
HETATM    8  C   UNK     0     -22.735  20.297  10.817  0.00  0.00     0.021 A 
HETATM    9  N   UNK     0     -23.591  20.512  11.829  0.00  0.00    -0.361 N 
HETATM   10  C   UNK     0     -24.189  21.705  11.626  0.00  0.00     0.022 A 
HETATM   11  C   UNK     0     -23.699  22.278  10.457  0.00  0.00    -0.027 A 
HETATM   12  C   UNK     0     -22.782  21.397   9.942  0.00  0.00    -0.031 A 
HETATM   13  C   UNK     0     -21.987  21.604   8.673  0.00  0.00     0.051 C 
HETATM   14  C   UNK     0     -25.280  22.325  12.494  0.00  0.00     0.115 C 
HETATM   15  C   UNK     0     -26.549  21.492  12.576  0.00  0.00     0.021 A 
HETATM   16  N   UNK     0     -26.674  20.226  13.015  0.00  0.00    -0.361 N 
HETATM   17  C   UNK     0     -27.939  19.831  12.860  0.00  0.00     0.022 A 
HETATM   18  C   UNK     0     -28.677  20.894  12.303  0.00  0.00    -0.027 A 
HETATM   19  C   UNK     0     -27.795  21.929  12.131  0.00  0.00    -0.031 A 
HETATM   20  C   UNK     0     -28.188  23.290  11.585  0.00  0.00     0.051 C 
HETATM   21  C   UNK     0     -28.577  18.487  13.129  0.00  0.00     0.115 C 
HETATM   22  C   UNK     0     -27.734  17.255  12.897  0.00  0.00     0.022 A 
HETATM   23  N   UNK     0     -26.871  17.016  11.901  0.00  0.00    -0.361 N 
HETATM   24  C   UNK     0     -26.231  15.859  12.164  0.00  0.00     0.021 A 
HETATM   25  C   UNK     0     -26.699  15.336  13.354  0.00  0.00    -0.031 A 
HETATM   26  C   UNK     0     -26.318  14.041  14.042  0.00  0.00     0.051 C 
HETATM   27  C   UNK     0     -27.663  16.211  13.842  0.00  0.00    -0.027 A 
HETATM   28  C   UNK     0     -25.100  15.222  11.375  0.00  0.00     0.115 C 
HETATM   29  H   UNK     0     -24.559  17.828  10.113  0.00  0.00     0.165 HD
HETATM   30  H   UNK     0     -23.738  19.846  12.715  0.00  0.00     0.165 HD
HETATM   31  H   UNK     0     -25.863  19.613  13.488  0.00  0.00     0.165 HD
HETATM   32  H   UNK     0     -26.737  17.640  10.979  0.00  0.00     0.165 HD
ENDROOT
BRANCH   6  33
HETATM   33  C   UNK     0     -20.342  16.784  12.035  0.00  0.00     0.051 C 
BRANCH  33  34
HETATM   34  C   UNK     0     -20.178  17.634  13.272  0.00  0.00     0.114 C 
BRANCH  34  35
HETATM   35  C   UNK     0     -20.171  16.716  14.447  0.00  0.00     0.139 C 
HETATM   36  O   UNK     0     -21.188  16.630  15.195  0.00  0.00    -0.650 OA
BRANCH  35  37
HETATM   37  O   UNK     0     -19.076  15.924  14.772  0.00  0.00    -0.776 OA
HETATM   38  H   UNK     0     -19.180  15.021  15.206  0.00  0.00     0.167 HD
ENDBRANCH  35  37
ENDBRANCH  34  35
ENDBRANCH  33  34
ENDBRANCH   6  33
BRANCH  27  39
HETATM   39  C   UNK     0     -28.448  15.946  15.078  0.00  0.00     0.051 C 
BRANCH  39  40
HETATM   40  C   UNK     0     -28.132  16.718  16.279  0.00  0.00     0.114 C 
BRANCH  40  41
HETATM   41  C   UNK     0     -26.788  17.152  16.585  0.00  0.00     0.139 C 
HETATM   42  O   UNK     0     -25.914  16.402  17.040  0.00  0.00    -0.650 OA
BRANCH  41  43
HETATM   43  O   UNK     0     -26.432  18.512  16.357  0.00  0.00    -0.776 OA
HETATM   44  H   UNK     0     -26.675  19.141  17.113  0.00  0.00     0.167 HD
ENDBRANCH  41  43
ENDBRANCH  40  41
ENDBRANCH  39  40
ENDBRANCH  27  39
BRANCH  11  45
HETATM   45  C   UNK     0     -24.060  23.599   9.832  0.00  0.00     0.051 C 
BRANCH  45  46
HETATM   46  C   UNK     0     -23.116  24.700  10.153  0.00  0.00     0.114 C 
BRANCH  46  47
HETATM   47  C   UNK     0     -22.613  25.242   8.858  0.00  0.00     0.139 C 
HETATM   48  O   UNK     0     -21.737  26.117   8.883  0.00  0.00    -0.650 OA
BRANCH  47  49
HETATM   49  O   UNK     0     -23.111  24.785   7.664  0.00  0.00    -0.776 OA
HETATM   50  H   UNK     0     -23.298  25.414   6.875  0.00  0.00     0.167 HD
ENDBRANCH  47  49
ENDBRANCH  46  47
ENDBRANCH  45  46
ENDBRANCH  11  45
BRANCH  18  51
HETATM   51  C   UNK     0     -30.147  20.929  11.972  0.00  0.00     0.051 C 
BRANCH  51  52
HETATM   52  C   UNK     0     -30.257  20.611  10.488  0.00  0.00     0.114 C 
BRANCH  52  53
HETATM   53  C   UNK     0     -31.187  19.494  10.233  0.00  0.00     0.139 C 
HETATM   54  O   UNK     0     -31.929  19.518   9.238  0.00  0.00    -0.650 OA
BRANCH  53  55
HETATM   55  O   UNK     0     -31.230  18.432  11.104  0.00  0.00    -0.776 OA
HETATM   56  H   UNK     0     -31.817  17.635  11.025  0.00  0.00     0.167 HD
ENDBRANCH  53  55
ENDBRANCH  52  53
ENDBRANCH  51  52
ENDBRANCH  18  51
TORSDOF 16
ENDMDL
MODEL 18
REMARK VINA RESULT:      -6.9      2.578      7.888
REMARK  16 active torsions:
REMARK  status: ('A' for Active; 'I' for Inactive)
REMARK    1  A    between atoms: C_6  and  C_7 
REMARK    2  A    between atoms: C_7  and  C_8 
REMARK    3  A    between atoms: C_8  and  C_9 
REMARK    4  A    between atoms: C_9  and  O_11 
REMARK    5  A    between atoms: C_16  and  C_17 
REMARK    6  A    between atoms: C_17  and  C_18 
REMARK    7  A    between atoms: C_18  and  C_19 
REMARK    8  A    between atoms: C_19  and  O_21 
REMARK    9  A    between atoms: C_28  and  C_29 
REMARK   10  A    between atoms: C_29  and  C_30 
REMARK   11  A    between atoms: C_30  and  C_31 
REMARK   12  A    between atoms: C_31  and  O_33 
REMARK   13  A    between atoms: C_42  and  C_43 
REMARK   14  A    between atoms: C_43  and  C_44 
REMARK   15  A    between atoms: C_44  and  C_45 
REMARK   16  A    between atoms: C_45  and  O_47 
ROOT
HETATM    1  C   UNK     0     -34.325  19.440  -1.338  0.00  0.00     0.051 C 
HETATM    2  C   UNK     0     -35.495  19.523  -0.379  0.00  0.00    -0.031 A 
HETATM    3  C   UNK     0     -36.600  20.359  -0.409  0.00  0.00     0.021 A 
HETATM    4  N   UNK     0     -37.376  20.103   0.670  0.00  0.00    -0.361 N 
HETATM    5  C   UNK     0     -36.795  19.115   1.382  0.00  0.00     0.022 A 
HETATM    6  C   UNK     0     -35.614  18.731   0.756  0.00  0.00    -0.027 A 
HETATM    7  C   UNK     0     -37.290  18.403   2.602  0.00  0.00     0.115 C 
HETATM    8  C   UNK     0     -38.760  18.021   2.619  0.00  0.00     0.021 A 
HETATM    9  N   UNK     0     -39.531  17.621   1.596  0.00  0.00    -0.361 N 
HETATM   10  C   UNK     0     -40.793  17.478   2.054  0.00  0.00     0.022 A 
HETATM   11  C   UNK     0     -40.833  17.785   3.411  0.00  0.00    -0.027 A 
HETATM   12  C   UNK     0     -39.556  18.128   3.773  0.00  0.00    -0.031 A 
HETATM   13  C   UNK     0     -39.120  18.533   5.164  0.00  0.00     0.051 C 
HETATM   14  C   UNK     0     -42.016  17.100   1.224  0.00  0.00     0.115 C 
HETATM   15  C   UNK     0     -42.333  18.085   0.110  0.00  0.00     0.021 A 
HETATM   16  N   UNK     0     -41.536  18.457  -0.909  0.00  0.00    -0.361 N 
HETATM   17  C   UNK     0     -42.155  19.394  -1.631  0.00  0.00     0.022 A 
HETATM   18  C   UNK     0     -43.420  19.637  -1.060  0.00  0.00    -0.027 A 
HETATM   19  C   UNK     0     -43.520  18.810   0.029  0.00  0.00    -0.031 A 
HETATM   20  C   UNK     0     -44.749  18.727   0.915  0.00  0.00     0.051 C 
HETATM   21  C   UNK     0     -41.666  20.182  -2.825  0.00  0.00     0.115 C 
HETATM   22  C   UNK     0     -40.197  20.531  -2.876  0.00  0.00     0.022 A 
HETATM   23  N   UNK     0     -39.403  20.928  -1.873  0.00  0.00    -0.361 N 
HETATM   24  C   UNK     0     -38.137  20.989  -2.334  0.00  0.00     0.021 A 
HETATM   25  C   UNK     0     -38.117  20.632  -3.668  0.00  0.00    -0.031 A 
HETATM   26  C   UNK     0     -36.945  20.587  -4.626  0.00  0.00     0.051 C 
HETATM   27  C   UNK     0     -39.424  20.335  -4.038  0.00  0.00    -0.027 A 
HETATM   28  C   UNK     0     -36.876  21.300  -1.547  0.00  0.00     0.115 C 
HETATM   29  H   UNK     0     -38.309  20.648   0.942  0.00  0.00     0.165 HD
HETATM   30  H   UNK     0     -39.179  17.390   0.561  0.00  0.00     0.165 HD
HETATM   31  H   UNK     0     -40.534  18.015  -1.153  0.00  0.00     0.165 HD
HETATM   32  H   UNK     0     -39.735  21.211  -0.840  0.00  0.00     0.165 HD
ENDROOT
BRANCH   6  33
HETATM   33  C   UNK     0     -34.603  17.684   1.149  0.00  0.00     0.051 C 
BRANCH  33  34
HETATM   34  C   UNK     0     -34.976  16.338   0.575  0.00  0.00     0.114 C 
BRANCH  34  35
HETATM   35  C   UNK     0     -33.978  15.348   1.074  0.00  0.00     0.139 C 
HETATM   36  O   UNK     0     -34.178  14.108   0.919  0.00  0.00    -0.650 OA
BRANCH  35  37
HETATM   37  O   UNK     0     -32.805  15.725   1.716  0.00  0.00    -0.776 OA
HETATM   38  H   UNK     0     -32.234  16.486   1.383  0.00  0.00     0.167 HD
ENDBRANCH  35  37
ENDBRANCH  34  35
ENDBRANCH  33  34
ENDBRANCH   6  33
BRANCH  27  39
HETATM   39  C   UNK     0     -39.811  19.976  -5.430  0.00  0.00     0.051 C 
BRANCH  39  40
HETATM   40  C   UNK     0     -40.237  21.048  -6.330  0.00  0.00     0.114 C 
BRANCH  40  41
HETATM   41  C   UNK     0     -41.593  21.550  -6.342  0.00  0.00     0.139 C 
HETATM   42  O   UNK     0     -42.002  22.431  -5.574  0.00  0.00    -0.650 OA
BRANCH  41  43
HETATM   43  O   UNK     0     -42.520  21.015  -7.281  0.00  0.00    -0.776 OA
HETATM   44  H   UNK     0     -43.108  20.277  -6.915  0.00  0.00     0.167 HD
ENDBRANCH  41  43
ENDBRANCH  40  41
ENDBRANCH  39  40
ENDBRANCH  27  39
BRANCH  11  45
HETATM   45  C   UNK     0     -42.012  17.762   4.348  0.00  0.00     0.051 C 
BRANCH  45  46
HETATM   46  C   UNK     0     -42.885  18.959   4.253  0.00  0.00     0.114 C 
BRANCH  46  47
HETATM   47  C   UNK     0     -44.222  18.574   4.789  0.00  0.00     0.139 C 
HETATM   48  O   UNK     0     -45.212  19.233   4.442  0.00  0.00    -0.650 OA
BRANCH  47  49
HETATM   49  O   UNK     0     -44.355  17.514   5.650  0.00  0.00    -0.776 OA
HETATM   50  H   UNK     0     -43.677  17.332   6.399  0.00  0.00     0.167 HD
ENDBRANCH  47  49
ENDBRANCH  46  47
ENDBRANCH  45  46
ENDBRANCH  11  45
BRANCH  18  51
HETATM   51  C   UNK     0     -44.484  20.590  -1.538  0.00  0.00     0.051 C 
BRANCH  51  52
HETATM   52  C   UNK     0     -45.103  19.953  -2.774  0.00  0.00     0.114 C 
BRANCH  52  53
HETATM   53  C   UNK     0     -46.181  19.008  -2.423  0.00  0.00     0.139 C 
HETATM   54  O   UNK     0     -47.127  19.381  -1.710  0.00  0.00    -0.650 OA
BRANCH  53  55
HETATM   55  O   UNK     0     -46.129  17.716  -2.885  0.00  0.00    -0.776 OA
HETATM   56  H   UNK     0     -45.789  17.426  -3.771  0.00  0.00     0.167 HD
ENDBRANCH  53  55
ENDBRANCH  52  53
ENDBRANCH  51  52
ENDBRANCH  18  51
TORSDOF 16
ENDMDL
MODEL 19
REMARK VINA RESULT:      -6.8      2.400      2.917
REMARK  16 active torsions:
REMARK  status: ('A' for Active; 'I' for Inactive)
REMARK    1  A    between atoms: C_6  and  C_7 
REMARK    2  A    between atoms: C_7  and  C_8 
REMARK    3  A    between atoms: C_8  and  C_9 
REMARK    4  A    between atoms: C_9  and  O_11 
REMARK    5  A    between atoms: C_16  and  C_17 
REMARK    6  A    between atoms: C_17  and  C_18 
REMARK    7  A    between atoms: C_18  and  C_19 
REMARK    8  A    between atoms: C_19  and  O_21 
REMARK    9  A    between atoms: C_28  and  C_29 
REMARK   10  A    between atoms: C_29  and  C_30 
REMARK   11  A    between atoms: C_30  and  C_31 
REMARK   12  A    between atoms: C_31  and  O_33 
REMARK   13  A    between atoms: C_42  and  C_43 
REMARK   14  A    between atoms: C_43  and  C_44 
REMARK   15  A    between atoms: C_44  and  C_45 
REMARK   16  A    between atoms: C_45  and  O_47 
ROOT
HETATM    1  C   UNK     0     -40.197  21.867  -4.987  0.00  0.00     0.051 C 
HETATM    2  C   UNK     0     -40.213  20.839  -3.873  0.00  0.00    -0.031 A 
HETATM    3  C   UNK     0     -39.413  19.721  -3.696  0.00  0.00     0.021 A 
HETATM    4  N   UNK     0     -39.803  19.073  -2.573  0.00  0.00    -0.361 N 
HETATM    5  C   UNK     0     -40.828  19.758  -2.025  0.00  0.00     0.022 A 
HETATM    6  C   UNK     0     -41.112  20.868  -2.814  0.00  0.00    -0.027 A 
HETATM    7  C   UNK     0     -41.552  19.520  -0.737  0.00  0.00     0.115 C 
HETATM    8  C   UNK     0     -40.701  19.152   0.465  0.00  0.00     0.021 A 
HETATM    9  N   UNK     0     -39.473  19.590   0.786  0.00  0.00    -0.361 N 
HETATM   10  C   UNK     0     -39.067  18.927   1.890  0.00  0.00     0.022 A 
HETATM   11  C   UNK     0     -40.064  18.045   2.296  0.00  0.00    -0.027 A 
HETATM   12  C   UNK     0     -41.096  18.182   1.404  0.00  0.00    -0.031 A 
HETATM   13  C   UNK     0     -42.402  17.420   1.453  0.00  0.00     0.051 C 
HETATM   14  C   UNK     0     -37.708  19.059   2.571  0.00  0.00     0.115 C 
HETATM   15  C   UNK     0     -36.534  18.678   1.683  0.00  0.00     0.021 A 
HETATM   16  N   UNK     0     -36.191  19.219   0.499  0.00  0.00    -0.361 N 
HETATM   17  C   UNK     0     -35.141  18.560   0.004  0.00  0.00     0.022 A 
HETATM   18  C   UNK     0     -34.777  17.546   0.913  0.00  0.00    -0.027 A 
HETATM   19  C   UNK     0     -35.657  17.632   1.961  0.00  0.00    -0.031 A 
HETATM   20  C   UNK     0     -35.598  16.740   3.187  0.00  0.00     0.051 C 
HETATM   21  C   UNK     0     -34.425  18.725  -1.317  0.00  0.00     0.115 C 
HETATM   22  C   UNK     0     -35.252  19.134  -2.513  0.00  0.00     0.022 A 
HETATM   23  N   UNK     0     -36.479  18.717  -2.855  0.00  0.00    -0.361 N 
HETATM   24  C   UNK     0     -36.894  19.447  -3.911  0.00  0.00     0.021 A 
HETATM   25  C   UNK     0     -35.908  20.347  -4.263  0.00  0.00    -0.031 A 
HETATM   26  C   UNK     0     -35.891  21.346  -5.401  0.00  0.00     0.051 C 
HETATM   27  C   UNK     0     -34.847  20.166  -3.384  0.00  0.00    -0.027 A 
HETATM   28  C   UNK     0     -38.250  19.404  -4.594  0.00  0.00     0.115 C 
HETATM   29  H   UNK     0     -39.377  18.114  -2.197  0.00  0.00     0.165 HD
HETATM   30  H   UNK     0     -38.911  20.403   0.265  0.00  0.00     0.165 HD
HETATM   31  H   UNK     0     -36.669  20.115   0.024  0.00  0.00     0.165 HD
HETATM   32  H   UNK     0     -37.046  17.874  -2.382  0.00  0.00     0.165 HD
ENDROOT
BRANCH   6  33
HETATM   33  C   UNK     0     -42.160  21.938  -2.643  0.00  0.00     0.051 C 
BRANCH  33  34
HETATM   34  C   UNK     0     -43.522  21.421  -3.043  0.00  0.00     0.114 C 
BRANCH  34  35
HETATM   35  C   UNK     0     -43.759  21.836  -4.456  0.00  0.00     0.139 C 
HETATM   36  O   UNK     0     -43.850  23.063  -4.753  0.00  0.00    -0.650 OA
BRANCH  35  37
HETATM   37  O   UNK     0     -43.886  20.921  -5.494  0.00  0.00    -0.776 OA
HETATM   38  H   UNK     0     -44.696  20.329  -5.589  0.00  0.00     0.167 HD
ENDBRANCH  35  37
ENDBRANCH  34  35
ENDBRANCH  33  34
ENDBRANCH   6  33
BRANCH  27  39
HETATM   39  C   UNK     0     -33.565  20.913  -3.495  0.00  0.00     0.051 C 
BRANCH  39  40
HETATM   40  C   UNK     0     -33.399  22.129  -2.698  0.00  0.00     0.114 C 
BRANCH  40  41
HETATM   41  C   UNK     0     -34.374  22.546  -1.716  0.00  0.00     0.139 C 
HETATM   42  O   UNK     0     -34.333  22.208  -0.525  0.00  0.00    -0.650 OA
BRANCH  41  43
HETATM   43  O   UNK     0     -35.447  23.389  -2.123  0.00  0.00    -0.776 OA
HETATM   44  H   UNK     0     -36.322  23.213  -1.645  0.00  0.00     0.167 HD
ENDBRANCH  41  43
ENDBRANCH  40  41
ENDBRANCH  39  40
ENDBRANCH  27  39
BRANCH  11  45
HETATM   45  C   UNK     0     -40.068  17.106   3.473  0.00  0.00     0.051 C 
BRANCH  45  46
HETATM   46  C   UNK     0     -40.023  17.787   4.792  0.00  0.00     0.114 C 
BRANCH  46  47
HETATM   47  C   UNK     0     -41.425  17.871   5.294  0.00  0.00     0.139 C 
HETATM   48  O   UNK     0     -42.188  18.701   4.781  0.00  0.00    -0.650 OA
BRANCH  47  49
HETATM   49  O   UNK     0     -41.860  17.049   6.302  0.00  0.00    -0.776 OA
HETATM   50  H   UNK     0     -41.425  17.050   7.232  0.00  0.00     0.167 HD
ENDBRANCH  47  49
ENDBRANCH  46  47
ENDBRANCH  45  46
ENDBRANCH  11  45
BRANCH  18  51
HETATM   51  C   UNK     0     -33.640  16.564   0.799  0.00  0.00     0.051 C 
BRANCH  51  52
HETATM   52  C   UNK     0     -34.276  15.184   0.718  0.00  0.00     0.114 C 
BRANCH  52  53
HETATM   53  C   UNK     0     -33.408  14.144   1.302  0.00  0.00     0.139 C 
HETATM   54  O   UNK     0     -33.889  13.052   1.642  0.00  0.00    -0.650 OA
BRANCH  53  55
HETATM   55  O   UNK     0     -32.067  14.394   1.471  0.00  0.00    -0.776 OA
HETATM   56  H   UNK     0     -31.417  13.804   1.935  0.00  0.00     0.167 HD
ENDBRANCH  53  55
ENDBRANCH  52  53
ENDBRANCH  51  52
ENDBRANCH  18  51
TORSDOF 16
ENDMDL
MODEL 20
REMARK VINA RESULT:      -6.7      2.663      7.789
REMARK  16 active torsions:
REMARK  status: ('A' for Active; 'I' for Inactive)
REMARK    1  A    between atoms: C_6  and  C_7 
REMARK    2  A    between atoms: C_7  and  C_8 
REMARK    3  A    between atoms: C_8  and  C_9 
REMARK    4  A    between atoms: C_9  and  O_11 
REMARK    5  A    between atoms: C_16  and  C_17 
REMARK    6  A    between atoms: C_17  and  C_18 
REMARK    7  A    between atoms: C_18  and  C_19 
REMARK    8  A    between atoms: C_19  and  O_21 
REMARK    9  A    between atoms: C_28  and  C_29 
REMARK   10  A    between atoms: C_29  and  C_30 
REMARK   11  A    between atoms: C_30  and  C_31 
REMARK   12  A    between atoms: C_31  and  O_33 
REMARK   13  A    between atoms: C_42  and  C_43 
REMARK   14  A    between atoms: C_43  and  C_44 
REMARK   15  A    between atoms: C_44  and  C_45 
REMARK   16  A    between atoms: C_45  and  O_47 
ROOT
HETATM    1  C   UNK     0     -34.027  19.246  -1.250  0.00  0.00     0.051 C 
HETATM    2  C   UNK     0     -35.240  19.348  -0.348  0.00  0.00    -0.031 A 
HETATM    3  C   UNK     0     -36.338  20.189  -0.443  0.00  0.00     0.021 A 
HETATM    4  N   UNK     0     -37.165  19.953   0.603  0.00  0.00    -0.361 N 
HETATM    5  C   UNK     0     -36.623  18.974   1.356  0.00  0.00     0.022 A 
HETATM    6  C   UNK     0     -35.417  18.575   0.791  0.00  0.00    -0.027 A 
HETATM    7  C   UNK     0     -37.178  18.283   2.562  0.00  0.00     0.115 C 
HETATM    8  C   UNK     0     -38.649  17.907   2.516  0.00  0.00     0.021 A 
HETATM    9  N   UNK     0     -39.374  17.495   1.465  0.00  0.00    -0.361 N 
HETATM   10  C   UNK     0     -40.657  17.365   1.865  0.00  0.00     0.022 A 
HETATM   11  C   UNK     0     -40.759  17.693   3.214  0.00  0.00    -0.027 A 
HETATM   12  C   UNK     0     -39.498  18.036   3.630  0.00  0.00    -0.031 A 
HETATM   13  C   UNK     0     -39.126  18.461   5.033  0.00  0.00     0.051 C 
HETATM   14  C   UNK     0     -41.842  16.980   0.984  0.00  0.00     0.115 C 
HETATM   15  C   UNK     0     -42.101  17.949  -0.158  0.00  0.00     0.021 A 
HETATM   16  N   UNK     0     -41.255  18.302  -1.144  0.00  0.00    -0.361 N 
HETATM   17  C   UNK     0     -41.835  19.231  -1.908  0.00  0.00     0.022 A 
HETATM   18  C   UNK     0     -43.124  19.488  -1.401  0.00  0.00    -0.027 A 
HETATM   19  C   UNK     0     -43.279  18.679  -0.306  0.00  0.00    -0.031 A 
HETATM   20  C   UNK     0     -44.548  18.614   0.523  0.00  0.00     0.051 C 
HETATM   21  C   UNK     0     -41.286  19.998  -3.090  0.00  0.00     0.115 C 
HETATM   22  C   UNK     0     -39.815  20.340  -3.077  0.00  0.00     0.022 A 
HETATM   23  N   UNK     0     -39.066  20.749  -2.045  0.00  0.00    -0.361 N 
HETATM   24  C   UNK     0     -37.780  20.796  -2.446  0.00  0.00     0.021 A 
HETATM   25  C   UNK     0     -37.700  20.419  -3.773  0.00  0.00    -0.031 A 
HETATM   26  C   UNK     0     -36.484  20.354  -4.674  0.00  0.00     0.051 C 
HETATM   27  C   UNK     0     -38.990  20.123  -4.199  0.00  0.00    -0.027 A 
HETATM   28  C   UNK     0     -36.555  21.114  -1.607  0.00  0.00     0.115 C 
HETATM   29  H   UNK     0     -38.107  20.507   0.823  0.00  0.00     0.165 HD
HETATM   30  H   UNK     0     -38.975  17.247   0.451  0.00  0.00     0.165 HD
HETATM   31  H   UNK     0     -40.246  17.852  -1.335  0.00  0.00     0.165 HD
HETATM   32  H   UNK     0     -39.445  21.049  -1.033  0.00  0.00     0.165 HD
ENDROOT
BRANCH   6  33
HETATM   33  C   UNK     0     -34.430  17.529   1.248  0.00  0.00     0.051 C 
BRANCH  33  34
HETATM   34  C   UNK     0     -34.742  16.191   0.622  0.00  0.00     0.114 C 
BRANCH  34  35
HETATM   35  C   UNK     0     -33.727  15.218   1.120  0.00  0.00     0.139 C 
HETATM   36  O   UNK     0     -33.956  13.974   1.064  0.00  0.00    -0.650 OA
BRANCH  35  37
HETATM   37  O   UNK     0     -32.508  15.615   1.655  0.00  0.00    -0.776 OA
HETATM   38  H   UNK     0     -32.068  16.483   1.396  0.00  0.00     0.167 HD
ENDBRANCH  35  37
ENDBRANCH  34  35
ENDBRANCH  33  34
ENDBRANCH   6  33
BRANCH  27  39
HETATM   39  C   UNK     0     -39.313  19.744  -5.602  0.00  0.00     0.051 C 
BRANCH  39  40
HETATM   40  C   UNK     0     -40.069  20.693  -6.419  0.00  0.00     0.114 C 
BRANCH  40  41
HETATM   41  C   UNK     0     -40.603  20.338  -7.715  0.00  0.00     0.139 C 
HETATM   42  O   UNK     0     -39.956  19.730  -8.578  0.00  0.00    -0.650 OA
BRANCH  41  43
HETATM   43  O   UNK     0     -41.943  20.700  -8.033  0.00  0.00    -0.776 OA
HETATM   44  H   UNK     0     -42.250  20.406  -8.953  0.00  0.00     0.167 HD
ENDBRANCH  41  43
ENDBRANCH  40  41
ENDBRANCH  39  40
ENDBRANCH  27  39
BRANCH  11  45
HETATM   45  C   UNK     0     -41.980  17.689   4.094  0.00  0.00     0.051 C 
BRANCH  45  46
HETATM   46  C   UNK     0     -42.869  18.864   3.903  0.00  0.00     0.114 C 
BRANCH  46  47
HETATM   47  C   UNK     0     -43.974  18.748   4.897  0.00  0.00     0.139 C 
HETATM   48  O   UNK     0     -44.563  19.778   5.251  0.00  0.00    -0.650 OA
BRANCH  47  49
HETATM   49  O   UNK     0     -44.331  17.527   5.410  0.00  0.00    -0.776 OA
HETATM   50  H   UNK     0     -43.676  16.949   5.949  0.00  0.00     0.167 HD
ENDBRANCH  47  49
ENDBRANCH  46  47
ENDBRANCH  45  46
ENDBRANCH  11  45
BRANCH  18  51
HETATM   51  C   UNK     0     -44.160  20.439  -1.943  0.00  0.00     0.051 C 
BRANCH  51  52
HETATM   52  C   UNK     0     -43.751  21.827  -1.474  0.00  0.00     0.114 C 
BRANCH  52  53
HETATM   53  C   UNK     0     -44.326  22.153  -0.155  0.00  0.00     0.139 C 
HETATM   54  O   UNK     0     -43.580  22.416   0.801  0.00  0.00    -0.650 OA
BRANCH  53  55
HETATM   55  O   UNK     0     -45.690  22.160   0.009  0.00  0.00    -0.776 OA
HETATM   56  H   UNK     0     -46.188  22.605   0.743  0.00  0.00     0.167 HD
ENDBRANCH  53  55
ENDBRANCH  52  53
ENDBRANCH  51  52
ENDBRANCH  18  51
TORSDOF 16
ENDMDL
