MODEL 1
REMARK VINA RESULT:     -10.2      0.000      0.000
REMARK  16 active torsions:
REMARK  status: ('A' for Active; 'I' for Inactive)
REMARK    1  A    between atoms: C_6  and  C_7 
REMARK    2  A    between atoms: C_7  and  C_8 
REMARK    3  A    between atoms: C_8  and  C_9 
REMARK    4  A    between atoms: C_9  and  O_11 
REMARK    5  A    between atoms: C_16  and  C_17 
REMARK    6  A    between atoms: C_17  and  C_18 
REMARK    7  A    between atoms: C_18  and  C_19 
REMARK    8  A    between atoms: C_19  and  O_21 
REMARK    9  A    between atoms: C_28  and  C_29 
REMARK   10  A    between atoms: C_29  and  C_30 
REMARK   11  A    between atoms: C_30  and  C_31 
REMARK   12  A    between atoms: C_31  and  O_33 
REMARK   13  A    between atoms: C_42  and  C_43 
REMARK   14  A    between atoms: C_43  and  C_44 
REMARK   15  A    between atoms: C_44  and  C_45 
REMARK   16  A    between atoms: C_45  and  O_47 
ROOT
HETATM    1  C   UNK     0     -38.909 -16.546  10.660  0.00  0.00     0.051 C 
HETATM    2  C   UNK     0     -38.056 -17.598  11.340  0.00  0.00    -0.031 A 
HETATM    3  C   UNK     0     -38.436 -18.793  11.931  0.00  0.00     0.021 A 
HETATM    4  N   UNK     0     -37.340 -19.401  12.442  0.00  0.00    -0.361 N 
HETATM    5  C   UNK     0     -36.268 -18.624  12.183  0.00  0.00     0.022 A 
HETATM    6  C   UNK     0     -36.680 -17.486  11.497  0.00  0.00    -0.027 A 
HETATM    7  C   UNK     0     -34.818 -18.882  12.451  0.00  0.00     0.115 C 
HETATM    8  C   UNK     0     -34.309 -20.282  12.154  0.00  0.00     0.021 A 
HETATM    9  N   UNK     0     -34.675 -21.113  11.166  0.00  0.00    -0.361 N 
HETATM   10  C   UNK     0     -34.031 -22.286  11.344  0.00  0.00     0.022 A 
HETATM   11  C   UNK     0     -33.220 -22.205  12.472  0.00  0.00    -0.027 A 
HETATM   12  C   UNK     0     -33.390 -20.945  12.987  0.00  0.00    -0.031 A 
HETATM   13  C   UNK     0     -32.699 -20.404  14.218  0.00  0.00     0.051 C 
HETATM   14  C   UNK     0     -34.193 -23.542  10.492  0.00  0.00     0.115 C 
HETATM   15  C   UNK     0     -35.605 -24.104  10.487  0.00  0.00     0.021 A 
HETATM   16  N   UNK     0     -36.736 -23.483  10.102  0.00  0.00    -0.361 N 
HETATM   17  C   UNK     0     -37.776 -24.292  10.317  0.00  0.00     0.022 A 
HETATM   18  C   UNK     0     -37.299 -25.502  10.859  0.00  0.00    -0.027 A 
HETATM   19  C   UNK     0     -35.938 -25.372  10.959  0.00  0.00    -0.031 A 
HETATM   20  C   UNK     0     -35.021 -26.470  11.466  0.00  0.00     0.051 C 
HETATM   21  C   UNK     0     -39.255 -24.046  10.124  0.00  0.00     0.115 C 
HETATM   22  C   UNK     0     -39.768 -22.647  10.373  0.00  0.00     0.022 A 
HETATM   23  N   UNK     0     -39.418 -21.796  11.346  0.00  0.00    -0.361 N 
HETATM   24  C   UNK     0     -40.012 -20.610  11.105  0.00  0.00     0.021 A 
HETATM   25  C   UNK     0     -40.770 -20.702   9.954  0.00  0.00    -0.031 A 
HETATM   26  C   UNK     0     -41.647 -19.652   9.303  0.00  0.00     0.051 C 
HETATM   27  C   UNK     0     -40.630 -21.997   9.467  0.00  0.00    -0.027 A 
HETATM   28  C   UNK     0     -39.845 -19.313  11.878  0.00  0.00     0.115 C 
HETATM   29  H   UNK     0     -37.337 -20.356  13.017  0.00  0.00     0.165 HD
HETATM   30  H   UNK     0     -35.350 -20.858  10.312  0.00  0.00     0.165 HD
HETATM   31  H   UNK     0     -36.798 -22.471   9.625  0.00  0.00     0.165 HD
HETATM   32  H   UNK     0     -38.782 -22.038  12.237  0.00  0.00     0.165 HD
ENDROOT
BRANCH   6  33
HETATM   33  C   UNK     0     -35.877 -16.316  10.989  0.00  0.00     0.051 C 
BRANCH  33  34
HETATM   34  C   UNK     0     -35.064 -16.710   9.779  0.00  0.00     0.114 C 
BRANCH  34  35
HETATM   35  C   UNK     0     -33.684 -16.182   9.977  0.00  0.00     0.139 C 
HETATM   36  O   UNK     0     -32.822 -16.869  10.599  0.00  0.00    -0.650 OA
BRANCH  35  37
HETATM   37  O   UNK     0     -33.281 -14.941   9.499  0.00  0.00    -0.776 OA
HETATM   38  H   UNK     0     -32.321 -14.637   9.542  0.00  0.00     0.167 HD
ENDBRANCH  35  37
ENDBRANCH  34  35
ENDBRANCH  33  34
ENDBRANCH   6  33
BRANCH  27  39
HETATM   39  C   UNK     0     -41.361 -22.497   8.271  0.00  0.00     0.051 C 
BRANCH  39  40
HETATM   40  C   UNK     0     -40.629 -22.616   7.010  0.00  0.00     0.114 C 
BRANCH  40  41
HETATM   41  C   UNK     0     -40.958 -23.617   6.020  0.00  0.00     0.139 C 
HETATM   42  O   UNK     0     -42.071 -24.151   5.931  0.00  0.00    -0.650 OA
BRANCH  41  43
HETATM   43  O   UNK     0     -39.959 -24.022   5.090  0.00  0.00    -0.776 OA
HETATM   44  H   UNK     0     -39.390 -24.802   5.399  0.00  0.00     0.167 HD
ENDBRANCH  41  43
ENDBRANCH  40  41
ENDBRANCH  39  40
ENDBRANCH  27  39
BRANCH  11  45
HETATM   45  C   UNK     0     -32.313 -23.254  13.057  0.00  0.00     0.051 C 
BRANCH  45  46
HETATM   46  C   UNK     0     -31.142 -23.586  12.206  0.00  0.00     0.114 C 
BRANCH  46  47
HETATM   47  C   UNK     0     -30.864 -25.040  12.385  0.00  0.00     0.139 C 
HETATM   48  O   UNK     0     -30.031 -25.383  13.235  0.00  0.00    -0.650 OA
BRANCH  47  49
HETATM   49  O   UNK     0     -31.515 -25.979  11.626  0.00  0.00    -0.776 OA
HETATM   50  H   UNK     0     -31.040 -26.503  10.881  0.00  0.00     0.167 HD
ENDBRANCH  47  49
ENDBRANCH  46  47
ENDBRANCH  45  46
ENDBRANCH  11  45
BRANCH  18  51
HETATM   51  C   UNK     0     -38.094 -26.724  11.240  0.00  0.00     0.051 C 
BRANCH  51  52
HETATM   52  C   UNK     0     -39.112 -26.264  12.274  0.00  0.00     0.114 C 
BRANCH  52  53
HETATM   53  C   UNK     0     -38.847 -26.849  13.603  0.00  0.00     0.139 C 
HETATM   54  O   UNK     0     -39.790 -27.100  14.370  0.00  0.00    -0.650 OA
BRANCH  53  55
HETATM   55  O   UNK     0     -37.554 -27.111  13.985  0.00  0.00    -0.776 OA
HETATM   56  H   UNK     0     -37.201 -27.076  14.912  0.00  0.00     0.167 HD
ENDBRANCH  53  55
ENDBRANCH  52  53
ENDBRANCH  51  52
ENDBRANCH  18  51
TORSDOF 16
ENDMDL
MODEL 2
REMARK VINA RESULT:     -10.1     29.037     33.204
REMARK  16 active torsions:
REMARK  status: ('A' for Active; 'I' for Inactive)
REMARK    1  A    between atoms: C_6  and  C_7 
REMARK    2  A    between atoms: C_7  and  C_8 
REMARK    3  A    between atoms: C_8  and  C_9 
REMARK    4  A    between atoms: C_9  and  O_11 
REMARK    5  A    between atoms: C_16  and  C_17 
REMARK    6  A    between atoms: C_17  and  C_18 
REMARK    7  A    between atoms: C_18  and  C_19 
REMARK    8  A    between atoms: C_19  and  O_21 
REMARK    9  A    between atoms: C_28  and  C_29 
REMARK   10  A    between atoms: C_29  and  C_30 
REMARK   11  A    between atoms: C_30  and  C_31 
REMARK   12  A    between atoms: C_31  and  O_33 
REMARK   13  A    between atoms: C_42  and  C_43 
REMARK   14  A    between atoms: C_43  and  C_44 
REMARK   15  A    between atoms: C_44  and  C_45 
REMARK   16  A    between atoms: C_45  and  O_47 
ROOT
HETATM    1  C   UNK     0      -8.385  -9.817  -0.576  0.00  0.00     0.051 C 
HETATM    2  C   UNK     0      -9.059 -10.350  -1.824  0.00  0.00    -0.031 A 
HETATM    3  C   UNK     0      -8.494 -10.763  -3.021  0.00  0.00     0.021 A 
HETATM    4  N   UNK     0      -9.482 -11.134  -3.869  0.00  0.00    -0.361 N 
HETATM    5  C   UNK     0     -10.663 -10.976  -3.237  0.00  0.00     0.022 A 
HETATM    6  C   UNK     0     -10.435 -10.484  -1.956  0.00  0.00    -0.027 A 
HETATM    7  C   UNK     0     -12.044 -11.327  -3.695  0.00  0.00     0.115 C 
HETATM    8  C   UNK     0     -12.208 -12.662  -4.402  0.00  0.00     0.021 A 
HETATM    9  N   UNK     0     -11.572 -13.819  -4.162  0.00  0.00    -0.361 N 
HETATM   10  C   UNK     0     -11.966 -14.714  -5.092  0.00  0.00     0.022 A 
HETATM   11  C   UNK     0     -12.887 -14.120  -5.949  0.00  0.00    -0.027 A 
HETATM   12  C   UNK     0     -13.044 -12.827  -5.520  0.00  0.00    -0.031 A 
HETATM   13  C   UNK     0     -13.959 -11.801  -6.152  0.00  0.00     0.051 C 
HETATM   14  C   UNK     0     -11.452 -16.143  -5.242  0.00  0.00     0.115 C 
HETATM   15  C   UNK     0      -9.959 -16.235  -5.515  0.00  0.00     0.021 A 
HETATM   16  N   UNK     0      -8.954 -15.765  -4.753  0.00  0.00    -0.361 N 
HETATM   17  C   UNK     0      -7.793 -15.983  -5.375  0.00  0.00     0.022 A 
HETATM   18  C   UNK     0      -8.053 -16.635  -6.596  0.00  0.00    -0.027 A 
HETATM   19  C   UNK     0      -9.413 -16.788  -6.672  0.00  0.00    -0.031 A 
HETATM   20  C   UNK     0     -10.122 -17.481  -7.821  0.00  0.00     0.051 C 
HETATM   21  C   UNK     0      -6.389 -15.587  -4.978  0.00  0.00     0.115 C 
HETATM   22  C   UNK     0      -6.216 -14.283  -4.236  0.00  0.00     0.022 A 
HETATM   23  N   UNK     0      -6.838 -13.116  -4.451  0.00  0.00    -0.361 N 
HETATM   24  C   UNK     0      -6.490 -12.263  -3.466  0.00  0.00     0.021 A 
HETATM   25  C   UNK     0      -5.615 -12.892  -2.602  0.00  0.00    -0.031 A 
HETATM   26  C   UNK     0      -4.920 -12.336  -1.376  0.00  0.00     0.051 C 
HETATM   27  C   UNK     0      -5.423 -14.186  -3.074  0.00  0.00    -0.027 A 
HETATM   28  C   UNK     0      -7.009 -10.855  -3.230  0.00  0.00     0.115 C 
HETATM   29  H   UNK     0      -9.340 -11.469  -4.923  0.00  0.00     0.165 HD
HETATM   30  H   UNK     0     -10.883 -14.022  -3.306  0.00  0.00     0.165 HD
HETATM   31  H   UNK     0      -9.061 -15.313  -3.733  0.00  0.00     0.165 HD
HETATM   32  H   UNK     0      -7.496 -12.870  -5.325  0.00  0.00     0.165 HD
ENDROOT
BRANCH   6  33
HETATM   33  C   UNK     0     -11.413 -10.133  -0.863  0.00  0.00     0.051 C 
BRANCH  33  34
HETATM   34  C   UNK     0     -12.137  -8.848  -1.185  0.00  0.00     0.114 C 
BRANCH  34  35
HETATM   35  C   UNK     0     -13.583  -9.064  -0.889  0.00  0.00     0.139 C 
HETATM   36  O   UNK     0     -14.466  -8.417  -1.522  0.00  0.00    -0.650 OA
BRANCH  35  37
HETATM   37  O   UNK     0     -14.024  -9.967   0.071  0.00  0.00    -0.776 OA
HETATM   38  H   UNK     0     -14.427 -10.856  -0.177  0.00  0.00     0.167 HD
ENDBRANCH  35  37
ENDBRANCH  34  35
ENDBRANCH  33  34
ENDBRANCH   6  33
BRANCH  27  39
HETATM   39  C   UNK     0      -4.483 -15.149  -2.440  0.00  0.00     0.051 C 
BRANCH  39  40
HETATM   40  C   UNK     0      -5.009 -16.074  -1.437  0.00  0.00     0.114 C 
BRANCH  40  41
HETATM   41  C   UNK     0      -5.464 -15.628  -0.139  0.00  0.00     0.139 C 
HETATM   42  O   UNK     0      -6.573 -15.113   0.056  0.00  0.00    -0.650 OA
BRANCH  41  43
HETATM   43  O   UNK     0      -4.603 -15.780   0.985  0.00  0.00    -0.776 OA
HETATM   44  H   UNK     0      -4.168 -16.691   1.059  0.00  0.00     0.167 HD
ENDBRANCH  41  43
ENDBRANCH  40  41
ENDBRANCH  39  40
ENDBRANCH  27  39
BRANCH  11  45
HETATM   45  C   UNK     0     -13.604 -14.725  -7.127  0.00  0.00     0.051 C 
BRANCH  45  46
HETATM   46  C   UNK     0     -14.623 -15.741  -6.759  0.00  0.00     0.114 C 
BRANCH  46  47
HETATM   47  C   UNK     0     -15.495 -15.943  -7.952  0.00  0.00     0.139 C 
HETATM   48  O   UNK     0     -16.457 -15.180  -8.118  0.00  0.00    -0.650 OA
BRANCH  47  49
HETATM   49  O   UNK     0     -15.240 -16.951  -8.846  0.00  0.00    -0.776 OA
HETATM   50  H   UNK     0     -14.578 -17.709  -8.640  0.00  0.00     0.167 HD
ENDBRANCH  47  49
ENDBRANCH  46  47
ENDBRANCH  45  46
ENDBRANCH  11  45
BRANCH  18  51
HETATM   51  C   UNK     0      -7.058 -17.106  -7.626  0.00  0.00     0.051 C 
BRANCH  51  52
HETATM   52  C   UNK     0      -6.518 -15.853  -8.299  0.00  0.00     0.114 C 
BRANCH  52  53
HETATM   53  C   UNK     0      -7.082 -15.668  -9.650  0.00  0.00     0.139 C 
HETATM   54  O   UNK     0      -8.279 -15.920  -9.863  0.00  0.00    -0.650 OA
BRANCH  53  55
HETATM   55  O   UNK     0      -6.276 -15.220 -10.668  0.00  0.00    -0.776 OA
HETATM   56  H   UNK     0      -6.237 -14.291 -11.017  0.00  0.00     0.167 HD
ENDBRANCH  53  55
ENDBRANCH  52  53
ENDBRANCH  51  52
ENDBRANCH  18  51
TORSDOF 16
ENDMDL
MODEL 3
REMARK VINA RESULT:     -10.1     28.680     32.542
REMARK  16 active torsions:
REMARK  status: ('A' for Active; 'I' for Inactive)
REMARK    1  A    between atoms: C_6  and  C_7 
REMARK    2  A    between atoms: C_7  and  C_8 
REMARK    3  A    between atoms: C_8  and  C_9 
REMARK    4  A    between atoms: C_9  and  O_11 
REMARK    5  A    between atoms: C_16  and  C_17 
REMARK    6  A    between atoms: C_17  and  C_18 
REMARK    7  A    between atoms: C_18  and  C_19 
REMARK    8  A    between atoms: C_19  and  O_21 
REMARK    9  A    between atoms: C_28  and  C_29 
REMARK   10  A    between atoms: C_29  and  C_30 
REMARK   11  A    between atoms: C_30  and  C_31 
REMARK   12  A    between atoms: C_31  and  O_33 
REMARK   13  A    between atoms: C_42  and  C_43 
REMARK   14  A    between atoms: C_43  and  C_44 
REMARK   15  A    between atoms: C_44  and  C_45 
REMARK   16  A    between atoms: C_45  and  O_47 
ROOT
HETATM    1  C   UNK     0      -6.225 -15.807  -4.279  0.00  0.00     0.051 C 
HETATM    2  C   UNK     0      -7.737 -15.835  -4.374  0.00  0.00    -0.031 A 
HETATM    3  C   UNK     0      -8.684 -15.378  -3.471  0.00  0.00     0.021 A 
HETATM    4  N   UNK     0      -9.920 -15.638  -3.959  0.00  0.00    -0.361 N 
HETATM    5  C   UNK     0      -9.782 -16.242  -5.157  0.00  0.00     0.022 A 
HETATM    6  C   UNK     0      -8.429 -16.384  -5.446  0.00  0.00    -0.027 A 
HETATM    7  C   UNK     0     -10.830 -16.650  -6.144  0.00  0.00     0.115 C 
HETATM    8  C   UNK     0     -11.960 -15.664  -6.384  0.00  0.00     0.021 A 
HETATM    9  N   UNK     0     -11.910 -14.323  -6.402  0.00  0.00    -0.361 N 
HETATM   10  C   UNK     0     -13.168 -13.858  -6.560  0.00  0.00     0.022 A 
HETATM   11  C   UNK     0     -14.051 -14.930  -6.655  0.00  0.00    -0.027 A 
HETATM   12  C   UNK     0     -13.297 -16.070  -6.546  0.00  0.00    -0.031 A 
HETATM   13  C   UNK     0     -13.835 -17.482  -6.599  0.00  0.00     0.051 C 
HETATM   14  C   UNK     0     -13.592 -12.393  -6.573  0.00  0.00     0.115 C 
HETATM   15  C   UNK     0     -13.280 -11.649  -5.284  0.00  0.00     0.021 A 
HETATM   16  N   UNK     0     -12.076 -11.479  -4.706  0.00  0.00    -0.361 N 
HETATM   17  C   UNK     0     -12.234 -10.830  -3.550  0.00  0.00     0.022 A 
HETATM   18  C   UNK     0     -13.604 -10.557  -3.371  0.00  0.00    -0.027 A 
HETATM   19  C   UNK     0     -14.248 -11.074  -4.465  0.00  0.00    -0.031 A 
HETATM   20  C   UNK     0     -15.745 -10.965  -4.692  0.00  0.00     0.051 C 
HETATM   21  C   UNK     0     -11.214 -10.460  -2.496  0.00  0.00     0.115 C 
HETATM   22  C   UNK     0     -10.060 -11.411  -2.278  0.00  0.00     0.022 A 
HETATM   23  N   UNK     0     -10.080 -12.750  -2.259  0.00  0.00    -0.361 N 
HETATM   24  C   UNK     0      -8.809 -13.191  -2.179  0.00  0.00     0.021 A 
HETATM   25  C   UNK     0      -7.950 -12.110  -2.136  0.00  0.00    -0.031 A 
HETATM   26  C   UNK     0      -6.441 -12.096  -2.006  0.00  0.00     0.051 C 
HETATM   27  C   UNK     0      -8.727 -10.959  -2.197  0.00  0.00    -0.027 A 
HETATM   28  C   UNK     0      -8.320 -14.629  -2.221  0.00  0.00     0.115 C 
HETATM   29  H   UNK     0     -10.882 -15.428  -3.435  0.00  0.00     0.165 HD
HETATM   30  H   UNK     0     -10.983 -13.701  -6.354  0.00  0.00     0.165 HD
HETATM   31  H   UNK     0     -11.090 -11.780  -5.144  0.00  0.00     0.165 HD
HETATM   32  H   UNK     0     -10.996 -13.396  -2.258  0.00  0.00     0.165 HD
ENDROOT
BRANCH   6  33
HETATM   33  C   UNK     0      -7.752 -16.995  -6.647  0.00  0.00     0.051 C 
BRANCH  33  34
HETATM   34  C   UNK     0      -6.904 -15.970  -7.363  0.00  0.00     0.114 C 
BRANCH  34  35
HETATM   35  C   UNK     0      -7.144 -16.136  -8.825  0.00  0.00     0.139 C 
HETATM   36  O   UNK     0      -8.274 -16.517  -9.246  0.00  0.00    -0.650 OA
BRANCH  35  37
HETATM   37  O   UNK     0      -6.164 -15.884  -9.778  0.00  0.00    -0.776 OA
HETATM   38  H   UNK     0      -6.328 -16.021 -10.762  0.00  0.00     0.167 HD
ENDBRANCH  35  37
ENDBRANCH  34  35
ENDBRANCH  33  34
ENDBRANCH   6  33
BRANCH  27  39
HETATM   39  C   UNK     0      -8.156  -9.588  -2.103  0.00  0.00     0.051 C 
BRANCH  39  40
HETATM   40  C   UNK     0      -7.800  -9.074  -0.781  0.00  0.00     0.114 C 
BRANCH  40  41
HETATM   41  C   UNK     0      -6.426  -8.911  -0.361  0.00  0.00     0.139 C 
HETATM   42  O   UNK     0      -6.061  -8.968   0.821  0.00  0.00    -0.650 OA
BRANCH  41  43
HETATM   43  O   UNK     0      -5.427  -8.670  -1.346  0.00  0.00    -0.776 OA
HETATM   44  H   UNK     0      -4.490  -8.933  -1.065  0.00  0.00     0.167 HD
ENDBRANCH  41  43
ENDBRANCH  40  41
ENDBRANCH  39  40
ENDBRANCH  27  39
BRANCH  11  45
HETATM   45  C   UNK     0     -15.544 -14.906  -6.844  0.00  0.00     0.051 C 
BRANCH  45  46
HETATM   46  C   UNK     0     -15.975 -14.875  -8.265  0.00  0.00     0.114 C 
BRANCH  46  47
HETATM   47  C   UNK     0     -16.430 -16.251  -8.618  0.00  0.00     0.139 C 
HETATM   48  O   UNK     0     -17.460 -16.688  -8.087  0.00  0.00    -0.650 OA
BRANCH  47  49
HETATM   49  O   UNK     0     -15.724 -17.017  -9.511  0.00  0.00    -0.776 OA
HETATM   50  H   UNK     0     -16.123 -17.860  -9.941  0.00  0.00     0.167 HD
ENDBRANCH  47  49
ENDBRANCH  46  47
ENDBRANCH  45  46
ENDBRANCH  11  45
BRANCH  18  51
HETATM   51  C   UNK     0     -14.261  -9.824  -2.230  0.00  0.00     0.051 C 
BRANCH  51  52
HETATM   52  C   UNK     0     -14.319  -8.360  -2.641  0.00  0.00     0.114 C 
BRANCH  52  53
HETATM   53  C   UNK     0     -15.678  -7.802  -2.498  0.00  0.00     0.139 C 
HETATM   54  O   UNK     0     -16.158  -7.619  -1.368  0.00  0.00    -0.650 OA
BRANCH  53  55
HETATM   55  O   UNK     0     -16.406  -7.490  -3.620  0.00  0.00    -0.776 OA
HETATM   56  H   UNK     0     -17.099  -6.782  -3.689  0.00  0.00     0.167 HD
ENDBRANCH  53  55
ENDBRANCH  52  53
ENDBRANCH  51  52
ENDBRANCH  18  51
TORSDOF 16
ENDMDL
MODEL 4
REMARK VINA RESULT:      -9.9      3.062      9.682
REMARK  16 active torsions:
REMARK  status: ('A' for Active; 'I' for Inactive)
REMARK    1  A    between atoms: C_6  and  C_7 
REMARK    2  A    between atoms: C_7  and  C_8 
REMARK    3  A    between atoms: C_8  and  C_9 
REMARK    4  A    between atoms: C_9  and  O_11 
REMARK    5  A    between atoms: C_16  and  C_17 
REMARK    6  A    between atoms: C_17  and  C_18 
REMARK    7  A    between atoms: C_18  and  C_19 
REMARK    8  A    between atoms: C_19  and  O_21 
REMARK    9  A    between atoms: C_28  and  C_29 
REMARK   10  A    between atoms: C_29  and  C_30 
REMARK   11  A    between atoms: C_30  and  C_31 
REMARK   12  A    between atoms: C_31  and  O_33 
REMARK   13  A    between atoms: C_42  and  C_43 
REMARK   14  A    between atoms: C_43  and  C_44 
REMARK   15  A    between atoms: C_44  and  C_45 
REMARK   16  A    between atoms: C_45  and  O_47 
ROOT
HETATM    1  C   UNK     0     -32.761 -22.281  11.995  0.00  0.00     0.051 C 
HETATM    2  C   UNK     0     -34.240 -22.059  11.755  0.00  0.00    -0.031 A 
HETATM    3  C   UNK     0     -35.059 -21.031  12.196  0.00  0.00     0.021 A 
HETATM    4  N   UNK     0     -36.323 -21.258  11.766  0.00  0.00    -0.361 N 
HETATM    5  C   UNK     0     -36.326 -22.404  11.053  0.00  0.00     0.022 A 
HETATM    6  C   UNK     0     -35.039 -22.933  11.029  0.00  0.00    -0.027 A 
HETATM    7  C   UNK     0     -37.440 -23.046  10.288  0.00  0.00     0.115 C 
HETATM    8  C   UNK     0     -38.320 -22.124   9.462  0.00  0.00     0.021 A 
HETATM    9  N   UNK     0     -37.970 -21.021   8.784  0.00  0.00    -0.361 N 
HETATM   10  C   UNK     0     -39.091 -20.468   8.274  0.00  0.00     0.022 A 
HETATM   11  C   UNK     0     -40.193 -21.243   8.626  0.00  0.00    -0.027 A 
HETATM   12  C   UNK     0     -39.714 -22.288   9.374  0.00  0.00    -0.031 A 
HETATM   13  C   UNK     0     -40.556 -23.393   9.972  0.00  0.00     0.051 C 
HETATM   14  C   UNK     0     -39.175 -19.165   7.484  0.00  0.00     0.115 C 
HETATM   15  C   UNK     0     -38.701 -17.945   8.256  0.00  0.00     0.021 A 
HETATM   16  N   UNK     0     -37.489 -17.740   8.805  0.00  0.00    -0.361 N 
HETATM   17  C   UNK     0     -37.495 -16.575   9.458  0.00  0.00     0.022 A 
HETATM   18  C   UNK     0     -38.769 -15.989   9.319  0.00  0.00    -0.027 A 
HETATM   19  C   UNK     0     -39.514 -16.856   8.563  0.00  0.00    -0.031 A 
HETATM   20  C   UNK     0     -40.949 -16.590   8.144  0.00  0.00     0.051 C 
HETATM   21  C   UNK     0     -36.416 -15.925  10.294  0.00  0.00     0.115 C 
HETATM   22  C   UNK     0     -35.506 -16.833  11.087  0.00  0.00     0.022 A 
HETATM   23  N   UNK     0     -35.826 -17.940  11.768  0.00  0.00    -0.361 N 
HETATM   24  C   UNK     0     -34.686 -18.516  12.201  0.00  0.00     0.021 A 
HETATM   25  C   UNK     0     -33.606 -17.755  11.797  0.00  0.00    -0.031 A 
HETATM   26  C   UNK     0     -32.132 -17.969  12.073  0.00  0.00     0.051 C 
HETATM   27  C   UNK     0     -34.105 -16.672  11.082  0.00  0.00    -0.027 A 
HETATM   28  C   UNK     0     -34.533 -19.835  12.938  0.00  0.00     0.115 C 
HETATM   29  H   UNK     0     -37.211 -20.628  12.002  0.00  0.00     0.165 HD
HETATM   30  H   UNK     0     -36.926 -20.656   8.621  0.00  0.00     0.165 HD
HETATM   31  H   UNK     0     -36.596 -18.408   8.691  0.00  0.00     0.165 HD
HETATM   32  H   UNK     0     -36.864 -18.303  11.988  0.00  0.00     0.165 HD
ENDROOT
BRANCH   6  33
HETATM   33  C   UNK     0     -34.520 -24.190  10.378  0.00  0.00     0.051 C 
BRANCH  33  34
HETATM   34  C   UNK     0     -35.264 -25.402  10.885  0.00  0.00     0.114 C 
BRANCH  34  35
HETATM   35  C   UNK     0     -34.482 -26.606  10.485  0.00  0.00     0.139 C 
HETATM   36  O   UNK     0     -34.483 -26.995   9.281  0.00  0.00    -0.650 OA
BRANCH  35  37
HETATM   37  O   UNK     0     -33.728 -27.345  11.389  0.00  0.00    -0.776 OA
HETATM   38  H   UNK     0     -33.997 -27.443  12.354  0.00  0.00     0.167 HD
ENDBRANCH  35  37
ENDBRANCH  34  35
ENDBRANCH  33  34
ENDBRANCH   6  33
BRANCH  27  39
HETATM   39  C   UNK     0     -33.240 -15.587  10.545  0.00  0.00     0.051 C 
BRANCH  39  40
HETATM   40  C   UNK     0     -32.910 -14.464  11.421  0.00  0.00     0.114 C 
BRANCH  40  41
HETATM   41  C   UNK     0     -31.653 -14.383  12.131  0.00  0.00     0.139 C 
HETATM   42  O   UNK     0     -30.549 -14.435  11.574  0.00  0.00    -0.650 OA
BRANCH  41  43
HETATM   43  O   UNK     0     -31.668 -14.236  13.547  0.00  0.00    -0.776 OA
HETATM   44  H   UNK     0     -31.402 -13.316  13.876  0.00  0.00     0.167 HD
ENDBRANCH  41  43
ENDBRANCH  40  41
ENDBRANCH  39  40
ENDBRANCH  27  39
BRANCH  11  45
HETATM   45  C   UNK     0     -41.642 -21.029   8.282  0.00  0.00     0.051 C 
BRANCH  45  46
HETATM   46  C   UNK     0     -42.130 -19.651   8.541  0.00  0.00     0.114 C 
BRANCH  46  47
HETATM   47  C   UNK     0     -42.163 -19.465  10.021  0.00  0.00     0.139 C 
HETATM   48  O   UNK     0     -41.874 -20.428  10.745  0.00  0.00    -0.650 OA
BRANCH  47  49
HETATM   49  O   UNK     0     -42.505 -18.255  10.569  0.00  0.00    -0.776 OA
HETATM   50  H   UNK     0     -42.450 -18.080  11.580  0.00  0.00     0.167 HD
ENDBRANCH  47  49
ENDBRANCH  46  47
ENDBRANCH  45  46
ENDBRANCH  11  45
BRANCH  18  51
HETATM   51  C   UNK     0     -39.242 -14.664   9.859  0.00  0.00     0.051 C 
BRANCH  51  52
HETATM   52  C   UNK     0     -39.738 -14.933  11.272  0.00  0.00     0.114 C 
BRANCH  52  53
HETATM   53  C   UNK     0     -41.206 -15.085  11.320  0.00  0.00     0.139 C 
HETATM   54  O   UNK     0     -41.926 -14.401  10.575  0.00  0.00    -0.650 OA
BRANCH  53  55
HETATM   55  O   UNK     0     -41.768 -15.983  12.194  0.00  0.00    -0.776 OA
HETATM   56  H   UNK     0     -41.390 -16.260  13.070  0.00  0.00     0.167 HD
ENDBRANCH  53  55
ENDBRANCH  52  53
ENDBRANCH  51  52
ENDBRANCH  18  51
TORSDOF 16
ENDMDL
MODEL 5
REMARK VINA RESULT:      -9.8      3.063      9.320
REMARK  16 active torsions:
REMARK  status: ('A' for Active; 'I' for Inactive)
REMARK    1  A    between atoms: C_6  and  C_7 
REMARK    2  A    between atoms: C_7  and  C_8 
REMARK    3  A    between atoms: C_8  and  C_9 
REMARK    4  A    between atoms: C_9  and  O_11 
REMARK    5  A    between atoms: C_16  and  C_17 
REMARK    6  A    between atoms: C_17  and  C_18 
REMARK    7  A    between atoms: C_18  and  C_19 
REMARK    8  A    between atoms: C_19  and  O_21 
REMARK    9  A    between atoms: C_28  and  C_29 
REMARK   10  A    between atoms: C_29  and  C_30 
REMARK   11  A    between atoms: C_30  and  C_31 
REMARK   12  A    between atoms: C_31  and  O_33 
REMARK   13  A    between atoms: C_42  and  C_43 
REMARK   14  A    between atoms: C_43  and  C_44 
REMARK   15  A    between atoms: C_44  and  C_45 
REMARK   16  A    between atoms: C_45  and  O_47 
ROOT
HETATM    1  C   UNK     0     -31.795 -20.557  13.355  0.00  0.00     0.051 C 
HETATM    2  C   UNK     0     -33.230 -20.697  12.890  0.00  0.00    -0.031 A 
HETATM    3  C   UNK     0     -34.329 -19.904  13.177  0.00  0.00     0.021 A 
HETATM    4  N   UNK     0     -35.421 -20.425  12.568  0.00  0.00    -0.361 N 
HETATM    5  C   UNK     0     -35.039 -21.528  11.892  0.00  0.00     0.022 A 
HETATM    6  C   UNK     0     -33.675 -21.729  12.074  0.00  0.00    -0.027 A 
HETATM    7  C   UNK     0     -35.836 -22.412  10.984  0.00  0.00     0.115 C 
HETATM    8  C   UNK     0     -36.776 -21.720  10.012  0.00  0.00     0.021 A 
HETATM    9  N   UNK     0     -36.604 -20.556   9.367  0.00  0.00    -0.361 N 
HETATM   10  C   UNK     0     -37.734 -20.286   8.681  0.00  0.00     0.022 A 
HETATM   11  C   UNK     0     -38.657 -21.308   8.882  0.00  0.00    -0.027 A 
HETATM   12  C   UNK     0     -38.060 -22.216   9.720  0.00  0.00    -0.031 A 
HETATM   13  C   UNK     0     -38.691 -23.499  10.212  0.00  0.00     0.051 C 
HETATM   14  C   UNK     0     -38.009 -19.033   7.855  0.00  0.00     0.115 C 
HETATM   15  C   UNK     0     -37.967 -17.743   8.659  0.00  0.00     0.021 A 
HETATM   16  N   UNK     0     -36.938 -17.258   9.379  0.00  0.00    -0.361 N 
HETATM   17  C   UNK     0     -37.324 -16.137   9.994  0.00  0.00     0.022 A 
HETATM   18  C   UNK     0     -38.665 -15.875   9.650  0.00  0.00    -0.027 A 
HETATM   19  C   UNK     0     -39.056 -16.888   8.813  0.00  0.00    -0.031 A 
HETATM   20  C   UNK     0     -40.431 -16.972   8.176  0.00  0.00     0.051 C 
HETATM   21  C   UNK     0     -36.574 -15.255  10.966  0.00  0.00     0.115 C 
HETATM   22  C   UNK     0     -35.602 -15.925  11.909  0.00  0.00     0.022 A 
HETATM   23  N   UNK     0     -35.746 -17.086  12.562  0.00  0.00    -0.361 N 
HETATM   24  C   UNK     0     -34.580 -17.373  13.176  0.00  0.00     0.021 A 
HETATM   25  C   UNK     0     -33.667 -16.369  12.920  0.00  0.00    -0.031 A 
HETATM   26  C   UNK     0     -32.245 -16.223  13.420  0.00  0.00     0.051 C 
HETATM   27  C   UNK     0     -34.298 -15.430  12.111  0.00  0.00    -0.027 A 
HETATM   28  C   UNK     0     -34.227 -18.625  13.960  0.00  0.00     0.115 C 
HETATM   29  H   UNK     0     -36.460 -20.032  12.652  0.00  0.00     0.165 HD
HETATM   30  H   UNK     0     -35.667 -19.948   9.354  0.00  0.00     0.165 HD
HETATM   31  H   UNK     0     -35.904 -17.688   9.416  0.00  0.00     0.165 HD
HETATM   32  H   UNK     0     -36.686 -17.692  12.632  0.00  0.00     0.165 HD
ENDROOT
BRANCH   6  33
HETATM   33  C   UNK     0     -32.774 -22.815  11.541  0.00  0.00     0.051 C 
BRANCH  33  34
HETATM   34  C   UNK     0     -32.364 -23.760  12.645  0.00  0.00     0.114 C 
BRANCH  34  35
HETATM   35  C   UNK     0     -30.918 -24.070  12.453  0.00  0.00     0.139 C 
HETATM   36  O   UNK     0     -30.333 -24.883  13.226  0.00  0.00    -0.650 OA
BRANCH  35  37
HETATM   37  O   UNK     0     -30.158 -23.499  11.440  0.00  0.00    -0.776 OA
HETATM   38  H   UNK     0     -29.714 -22.601  11.545  0.00  0.00     0.167 HD
ENDBRANCH  35  37
ENDBRANCH  34  35
ENDBRANCH  33  34
ENDBRANCH   6  33
BRANCH  27  39
HETATM   39  C   UNK     0     -33.648 -14.161  11.683  0.00  0.00     0.051 C 
BRANCH  39  40
HETATM   40  C   UNK     0     -32.766 -14.193  10.517  0.00  0.00     0.114 C 
BRANCH  40  41
HETATM   41  C   UNK     0     -31.397 -13.732  10.574  0.00  0.00     0.139 C 
HETATM   42  O   UNK     0     -30.554 -14.188  11.359  0.00  0.00    -0.650 OA
BRANCH  41  43
HETATM   43  O   UNK     0     -30.978 -12.698   9.689  0.00  0.00    -0.776 OA
HETATM   44  H   UNK     0     -30.747 -11.824  10.145  0.00  0.00     0.167 HD
ENDBRANCH  41  43
ENDBRANCH  40  41
ENDBRANCH  39  40
ENDBRANCH  27  39
BRANCH  11  45
HETATM   45  C   UNK     0     -40.046 -21.448   8.319  0.00  0.00     0.051 C 
BRANCH  45  46
HETATM   46  C   UNK     0     -40.945 -20.309   8.634  0.00  0.00     0.114 C 
BRANCH  46  47
HETATM   47  C   UNK     0     -41.666 -20.651   9.893  0.00  0.00     0.139 C 
HETATM   48  O   UNK     0     -41.766 -21.844  10.214  0.00  0.00    -0.650 OA
BRANCH  47  49
HETATM   49  O   UNK     0     -42.210 -19.668  10.680  0.00  0.00    -0.776 OA
HETATM   50  H   UNK     0     -43.220 -19.606  10.857  0.00  0.00     0.167 HD
ENDBRANCH  47  49
ENDBRANCH  46  47
ENDBRANCH  45  46
ENDBRANCH  11  45
BRANCH  18  51
HETATM   51  C   UNK     0     -39.520 -14.712  10.080  0.00  0.00     0.051 C 
BRANCH  51  52
HETATM   52  C   UNK     0     -40.319 -15.191  11.283  0.00  0.00     0.114 C 
BRANCH  52  53
HETATM   53  C   UNK     0     -41.710 -15.527  10.921  0.00  0.00     0.139 C 
HETATM   54  O   UNK     0     -42.396 -14.719  10.275  0.00  0.00    -0.650 OA
BRANCH  53  55
HETATM   55  O   UNK     0     -42.240 -16.734  11.306  0.00  0.00    -0.776 OA
HETATM   56  H   UNK     0     -41.940 -17.629  10.995  0.00  0.00     0.167 HD
ENDBRANCH  53  55
ENDBRANCH  52  53
ENDBRANCH  51  52
ENDBRANCH  18  51
TORSDOF 16
ENDMDL
MODEL 6
REMARK VINA RESULT:      -9.7     28.361     32.233
REMARK  16 active torsions:
REMARK  status: ('A' for Active; 'I' for Inactive)
REMARK    1  A    between atoms: C_6  and  C_7 
REMARK    2  A    between atoms: C_7  and  C_8 
REMARK    3  A    between atoms: C_8  and  C_9 
REMARK    4  A    between atoms: C_9  and  O_11 
REMARK    5  A    between atoms: C_16  and  C_17 
REMARK    6  A    between atoms: C_17  and  C_18 
REMARK    7  A    between atoms: C_18  and  C_19 
REMARK    8  A    between atoms: C_19  and  O_21 
REMARK    9  A    between atoms: C_28  and  C_29 
REMARK   10  A    between atoms: C_29  and  C_30 
REMARK   11  A    between atoms: C_30  and  C_31 
REMARK   12  A    between atoms: C_31  and  O_33 
REMARK   13  A    between atoms: C_42  and  C_43 
REMARK   14  A    between atoms: C_43  and  C_44 
REMARK   15  A    between atoms: C_44  and  C_45 
REMARK   16  A    between atoms: C_45  and  O_47 
ROOT
HETATM    1  C   UNK     0     -10.355  -8.860   0.056  0.00  0.00     0.051 C 
HETATM    2  C   UNK     0     -10.703  -9.430  -1.304  0.00  0.00    -0.031 A 
HETATM    3  C   UNK     0      -9.864  -9.913  -2.296  0.00  0.00     0.021 A 
HETATM    4  N   UNK     0     -10.612 -10.294  -3.359  0.00  0.00    -0.361 N 
HETATM    5  C   UNK     0     -11.909 -10.074  -3.062  0.00  0.00     0.022 A 
HETATM    6  C   UNK     0     -12.002  -9.531  -1.785  0.00  0.00    -0.027 A 
HETATM    7  C   UNK     0     -13.137 -10.407  -3.852  0.00  0.00     0.115 C 
HETATM    8  C   UNK     0     -13.164 -11.767  -4.527  0.00  0.00     0.021 A 
HETATM    9  N   UNK     0     -12.658 -12.929  -4.088  0.00  0.00    -0.361 N 
HETATM   10  C   UNK     0     -12.832 -13.855  -5.055  0.00  0.00     0.022 A 
HETATM   11  C   UNK     0     -13.475 -13.274  -6.144  0.00  0.00    -0.027 A 
HETATM   12  C   UNK     0     -13.688 -11.959  -5.818  0.00  0.00    -0.031 A 
HETATM   13  C   UNK     0     -14.367 -10.938  -6.703  0.00  0.00     0.051 C 
HETATM   14  C   UNK     0     -12.352 -15.303  -5.014  0.00  0.00     0.115 C 
HETATM   15  C   UNK     0     -10.844 -15.449  -4.885  0.00  0.00     0.021 A 
HETATM   16  N   UNK     0     -10.054 -14.973  -3.905  0.00  0.00    -0.361 N 
HETATM   17  C   UNK     0      -8.781 -15.252  -4.194  0.00  0.00     0.022 A 
HETATM   18  C   UNK     0      -8.741 -15.951  -5.417  0.00  0.00    -0.027 A 
HETATM   19  C   UNK     0     -10.040 -16.069  -5.838  0.00  0.00    -0.031 A 
HETATM   20  C   UNK     0     -10.453 -16.793  -7.107  0.00  0.00     0.051 C 
HETATM   21  C   UNK     0      -7.513 -14.878  -3.460  0.00  0.00     0.115 C 
HETATM   22  C   UNK     0      -7.488 -13.547  -2.746  0.00  0.00     0.022 A 
HETATM   23  N   UNK     0      -7.987 -12.374  -3.158  0.00  0.00    -0.361 N 
HETATM   24  C   UNK     0      -7.873 -11.487  -2.149  0.00  0.00     0.021 A 
HETATM   25  C   UNK     0      -7.277 -12.101  -1.064  0.00  0.00    -0.031 A 
HETATM   26  C   UNK     0      -6.903 -11.509   0.279  0.00  0.00     0.051 C 
HETATM   27  C   UNK     0      -7.020 -13.419  -1.422  0.00  0.00    -0.027 A 
HETATM   28  C   UNK     0      -8.381 -10.056  -2.108  0.00  0.00     0.115 C 
HETATM   29  H   UNK     0     -10.215 -10.680  -4.327  0.00  0.00     0.165 HD
HETATM   30  H   UNK     0     -12.223 -13.113  -3.075  0.00  0.00     0.165 HD
HETATM   31  H   UNK     0     -10.404 -14.472  -2.965  0.00  0.00     0.165 HD
HETATM   32  H   UNK     0      -8.386 -12.149  -4.182  0.00  0.00     0.165 HD
ENDROOT
BRANCH   6  33
HETATM   33  C   UNK     0     -13.215  -9.104  -0.998  0.00  0.00     0.051 C 
BRANCH  33  34
HETATM   34  C   UNK     0     -14.120  -8.235  -1.839  0.00  0.00     0.114 C 
BRANCH  34  35
HETATM   35  C   UNK     0     -15.527  -8.576  -1.481  0.00  0.00     0.139 C 
HETATM   36  O   UNK     0     -16.036  -8.137  -0.409  0.00  0.00    -0.650 OA
BRANCH  35  37
HETATM   37  O   UNK     0     -16.333  -9.372  -2.286  0.00  0.00    -0.776 OA
HETATM   38  H   UNK     0     -15.952 -10.093  -2.877  0.00  0.00     0.167 HD
ENDBRANCH  35  37
ENDBRANCH  34  35
ENDBRANCH  33  34
ENDBRANCH   6  33
BRANCH  27  39
HETATM   39  C   UNK     0      -6.315 -14.379  -0.530  0.00  0.00     0.051 C 
BRANCH  39  40
HETATM   40  C   UNK     0      -4.890 -14.620  -0.758  0.00  0.00     0.114 C 
BRANCH  40  41
HETATM   41  C   UNK     0      -4.414 -15.470  -1.826  0.00  0.00     0.139 C 
HETATM   42  O   UNK     0      -4.298 -16.699  -1.722  0.00  0.00    -0.650 OA
BRANCH  41  43
HETATM   43  O   UNK     0      -4.055 -14.880  -3.071  0.00  0.00    -0.776 OA
HETATM   44  H   UNK     0      -4.029 -15.528  -3.850  0.00  0.00     0.167 HD
ENDBRANCH  41  43
ENDBRANCH  40  41
ENDBRANCH  39  40
ENDBRANCH  27  39
BRANCH  11  45
HETATM   45  C   UNK     0     -13.885 -13.911  -7.445  0.00  0.00     0.051 C 
BRANCH  45  46
HETATM   46  C   UNK     0     -15.271 -14.446  -7.447  0.00  0.00     0.114 C 
BRANCH  46  47
HETATM   47  C   UNK     0     -15.174 -15.924  -7.276  0.00  0.00     0.139 C 
HETATM   48  O   UNK     0     -15.864 -16.465  -6.400  0.00  0.00    -0.650 OA
BRANCH  47  49
HETATM   49  O   UNK     0     -14.339 -16.670  -8.068  0.00  0.00    -0.776 OA
HETATM   50  H   UNK     0     -13.459 -16.293  -8.440  0.00  0.00     0.167 HD
ENDBRANCH  47  49
ENDBRANCH  46  47
ENDBRANCH  45  46
ENDBRANCH  11  45
BRANCH  18  51
HETATM   51  C   UNK     0      -7.532 -16.496  -6.133  0.00  0.00     0.051 C 
BRANCH  51  52
HETATM   52  C   UNK     0      -7.450 -17.971  -5.769  0.00  0.00     0.114 C 
BRANCH  52  53
HETATM   53  C   UNK     0      -6.664 -18.190  -4.539  0.00  0.00     0.139 C 
HETATM   54  O   UNK     0      -6.985 -19.091  -3.749  0.00  0.00    -0.650 OA
BRANCH  53  55
HETATM   55  O   UNK     0      -5.579 -17.389  -4.274  0.00  0.00    -0.776 OA
HETATM   56  H   UNK     0      -5.358 -16.536  -4.731  0.00  0.00     0.167 HD
ENDBRANCH  53  55
ENDBRANCH  52  53
ENDBRANCH  51  52
ENDBRANCH  18  51
TORSDOF 16
ENDMDL
MODEL 7
REMARK VINA RESULT:      -9.6      3.116      8.278
REMARK  16 active torsions:
REMARK  status: ('A' for Active; 'I' for Inactive)
REMARK    1  A    between atoms: C_6  and  C_7 
REMARK    2  A    between atoms: C_7  and  C_8 
REMARK    3  A    between atoms: C_8  and  C_9 
REMARK    4  A    between atoms: C_9  and  O_11 
REMARK    5  A    between atoms: C_16  and  C_17 
REMARK    6  A    between atoms: C_17  and  C_18 
REMARK    7  A    between atoms: C_18  and  C_19 
REMARK    8  A    between atoms: C_19  and  O_21 
REMARK    9  A    between atoms: C_28  and  C_29 
REMARK   10  A    between atoms: C_29  and  C_30 
REMARK   11  A    between atoms: C_30  and  C_31 
REMARK   12  A    between atoms: C_31  and  O_33 
REMARK   13  A    between atoms: C_42  and  C_43 
REMARK   14  A    between atoms: C_43  and  C_44 
REMARK   15  A    between atoms: C_44  and  C_45 
REMARK   16  A    between atoms: C_45  and  O_47 
ROOT
HETATM    1  C   UNK     0     -36.342 -13.210  10.996  0.00  0.00     0.051 C 
HETATM    2  C   UNK     0     -36.627 -14.547  10.342  0.00  0.00    -0.031 A 
HETATM    3  C   UNK     0     -35.741 -15.515   9.897  0.00  0.00     0.021 A 
HETATM    4  N   UNK     0     -36.441 -16.537   9.349  0.00  0.00    -0.361 N 
HETATM    5  C   UNK     0     -37.755 -16.245   9.445  0.00  0.00     0.022 A 
HETATM    6  C   UNK     0     -37.907 -15.006  10.059  0.00  0.00    -0.027 A 
HETATM    7  C   UNK     0     -38.944 -17.077   9.078  0.00  0.00     0.115 C 
HETATM    8  C   UNK     0     -38.890 -18.547   9.455  0.00  0.00     0.021 A 
HETATM    9  N   UNK     0     -38.341 -19.112  10.541  0.00  0.00    -0.361 N 
HETATM   10  C   UNK     0     -38.445 -20.452  10.415  0.00  0.00     0.022 A 
HETATM   11  C   UNK     0     -39.087 -20.758   9.218  0.00  0.00    -0.027 A 
HETATM   12  C   UNK     0     -39.370 -19.562   8.608  0.00  0.00    -0.031 A 
HETATM   13  C   UNK     0     -40.073 -19.404   7.279  0.00  0.00     0.051 C 
HETATM   14  C   UNK     0     -37.899 -21.494  11.386  0.00  0.00     0.115 C 
HETATM   15  C   UNK     0     -36.390 -21.441  11.562  0.00  0.00     0.021 A 
HETATM   16  N   UNK     0     -35.649 -20.400  11.986  0.00  0.00    -0.361 N 
HETATM   17  C   UNK     0     -34.357 -20.732  11.935  0.00  0.00     0.022 A 
HETATM   18  C   UNK     0     -34.252 -22.056  11.464  0.00  0.00    -0.027 A 
HETATM   19  C   UNK     0     -35.532 -22.489  11.236  0.00  0.00    -0.031 A 
HETATM   20  C   UNK     0     -35.877 -23.886  10.753  0.00  0.00     0.051 C 
HETATM   21  C   UNK     0     -33.128 -19.903  12.231  0.00  0.00     0.115 C 
HETATM   22  C   UNK     0     -33.184 -18.430  11.903  0.00  0.00     0.022 A 
HETATM   23  N   UNK     0     -33.727 -17.839  10.830  0.00  0.00    -0.361 N 
HETATM   24  C   UNK     0     -33.682 -16.504  11.014  0.00  0.00     0.021 A 
HETATM   25  C   UNK     0     -33.086 -16.229  12.230  0.00  0.00    -0.031 A 
HETATM   26  C   UNK     0     -32.775 -14.885  12.857  0.00  0.00     0.051 C 
HETATM   27  C   UNK     0     -32.758 -17.445  12.817  0.00  0.00    -0.027 A 
HETATM   28  C   UNK     0     -34.257 -15.422  10.117  0.00  0.00     0.115 C 
HETATM   29  H   UNK     0     -36.002 -17.439   8.864  0.00  0.00     0.165 HD
HETATM   30  H   UNK     0     -37.924 -18.567  11.423  0.00  0.00     0.165 HD
HETATM   31  H   UNK     0     -36.047 -19.427  12.374  0.00  0.00     0.165 HD
HETATM   32  H   UNK     0     -34.109 -18.358   9.913  0.00  0.00     0.165 HD
ENDROOT
BRANCH   6  33
HETATM   33  C   UNK     0     -39.159 -14.234  10.389  0.00  0.00     0.051 C 
BRANCH  33  34
HETATM   34  C   UNK     0     -40.040 -15.020  11.331  0.00  0.00     0.114 C 
BRANCH  34  35
HETATM   35  C   UNK     0     -41.354 -15.214  10.654  0.00  0.00     0.139 C 
HETATM   36  O   UNK     0     -41.868 -14.276   9.978  0.00  0.00    -0.650 OA
BRANCH  35  37
HETATM   37  O   UNK     0     -42.066 -16.406  10.727  0.00  0.00    -0.776 OA
HETATM   38  H   UNK     0     -42.245 -16.972   9.914  0.00  0.00     0.167 HD
ENDBRANCH  35  37
ENDBRANCH  34  35
ENDBRANCH  33  34
ENDBRANCH   6  33
BRANCH  27  39
HETATM   39  C   UNK     0     -32.031 -17.551  14.111  0.00  0.00     0.051 C 
BRANCH  39  40
HETATM   40  C   UNK     0     -30.569 -17.508  14.092  0.00  0.00     0.114 C 
BRANCH  40  41
HETATM   41  C   UNK     0     -29.828 -16.338  14.505  0.00  0.00     0.139 C 
HETATM   42  O   UNK     0     -29.813 -15.914  15.669  0.00  0.00    -0.650 OA
BRANCH  41  43
HETATM   43  O   UNK     0     -29.069 -15.623  13.536  0.00  0.00    -0.776 OA
HETATM   44  H   UNK     0     -28.485 -16.206  12.947  0.00  0.00     0.167 HD
ENDBRANCH  41  43
ENDBRANCH  40  41
ENDBRANCH  39  40
ENDBRANCH  27  39
BRANCH  11  45
HETATM   45  C   UNK     0     -39.432 -22.110   8.654  0.00  0.00     0.051 C 
BRANCH  45  46
HETATM   46  C   UNK     0     -40.707 -22.673   9.167  0.00  0.00     0.114 C 
BRANCH  46  47
HETATM   47  C   UNK     0     -40.357 -23.699  10.190  0.00  0.00     0.139 C 
HETATM   48  O   UNK     0     -39.358 -24.407  10.002  0.00  0.00    -0.650 OA
BRANCH  47  49
HETATM   49  O   UNK     0     -41.124 -23.857  11.317  0.00  0.00    -0.776 OA
HETATM   50  H   UNK     0     -42.119 -23.603  11.340  0.00  0.00     0.167 HD
ENDBRANCH  47  49
ENDBRANCH  46  47
ENDBRANCH  45  46
ENDBRANCH  11  45
BRANCH  18  51
HETATM   51  C   UNK     0     -33.001 -22.872  11.264  0.00  0.00     0.051 C 
BRANCH  51  52
HETATM   52  C   UNK     0     -32.495 -23.225  12.655  0.00  0.00     0.114 C 
BRANCH  52  53
HETATM   53  C   UNK     0     -31.198 -23.927  12.606  0.00  0.00     0.139 C 
HETATM   54  O   UNK     0     -30.328 -23.569  11.796  0.00  0.00    -0.650 OA
BRANCH  53  55
HETATM   55  O   UNK     0     -30.961 -24.978  13.458  0.00  0.00    -0.776 OA
HETATM   56  H   UNK     0     -31.624 -25.397  14.067  0.00  0.00     0.167 HD
ENDBRANCH  53  55
ENDBRANCH  52  53
ENDBRANCH  51  52
ENDBRANCH  18  51
TORSDOF 16
ENDMDL
MODEL 8
REMARK VINA RESULT:      -8.4      2.745      7.655
REMARK  16 active torsions:
REMARK  status: ('A' for Active; 'I' for Inactive)
REMARK    1  A    between atoms: C_6  and  C_7 
REMARK    2  A    between atoms: C_7  and  C_8 
REMARK    3  A    between atoms: C_8  and  C_9 
REMARK    4  A    between atoms: C_9  and  O_11 
REMARK    5  A    between atoms: C_16  and  C_17 
REMARK    6  A    between atoms: C_17  and  C_18 
REMARK    7  A    between atoms: C_18  and  C_19 
REMARK    8  A    between atoms: C_19  and  O_21 
REMARK    9  A    between atoms: C_28  and  C_29 
REMARK   10  A    between atoms: C_29  and  C_30 
REMARK   11  A    between atoms: C_30  and  C_31 
REMARK   12  A    between atoms: C_31  and  O_33 
REMARK   13  A    between atoms: C_42  and  C_43 
REMARK   14  A    between atoms: C_43  and  C_44 
REMARK   15  A    between atoms: C_44  and  C_45 
REMARK   16  A    between atoms: C_45  and  O_47 
ROOT
HETATM    1  C   UNK     0     -37.890 -14.058  10.620  0.00  0.00     0.051 C 
HETATM    2  C   UNK     0     -38.221 -15.348   9.897  0.00  0.00    -0.031 A 
HETATM    3  C   UNK     0     -37.371 -16.341   9.435  0.00  0.00     0.021 A 
HETATM    4  N   UNK     0     -38.105 -17.299   8.820  0.00  0.00    -0.361 N 
HETATM    5  C   UNK     0     -39.404 -16.942   8.888  0.00  0.00     0.022 A 
HETATM    6  C   UNK     0     -39.513 -15.725   9.553  0.00  0.00    -0.027 A 
HETATM    7  C   UNK     0     -40.622 -17.693   8.447  0.00  0.00     0.115 C 
HETATM    8  C   UNK     0     -40.656 -19.179   8.757  0.00  0.00     0.021 A 
HETATM    9  N   UNK     0     -40.173 -19.820   9.833  0.00  0.00    -0.361 N 
HETATM   10  C   UNK     0     -40.342 -21.145   9.642  0.00  0.00     0.022 A 
HETATM   11  C   UNK     0     -40.959 -21.364   8.414  0.00  0.00    -0.027 A 
HETATM   12  C   UNK     0     -41.159 -20.129   7.851  0.00  0.00    -0.031 A 
HETATM   13  C   UNK     0     -41.808 -19.875   6.509  0.00  0.00     0.051 C 
HETATM   14  C   UNK     0     -39.883 -22.257  10.582  0.00  0.00     0.115 C 
HETATM   15  C   UNK     0     -38.380 -22.292  10.807  0.00  0.00     0.021 A 
HETATM   16  N   UNK     0     -37.601 -21.311  11.300  0.00  0.00    -0.361 N 
HETATM   17  C   UNK     0     -36.327 -21.709  11.274  0.00  0.00     0.022 A 
HETATM   18  C   UNK     0     -36.274 -23.014  10.747  0.00  0.00    -0.027 A 
HETATM   19  C   UNK     0     -37.567 -23.369  10.460  0.00  0.00    -0.031 A 
HETATM   20  C   UNK     0     -37.967 -24.723   9.903  0.00  0.00     0.051 C 
HETATM   21  C   UNK     0     -35.067 -20.960  11.646  0.00  0.00     0.115 C 
HETATM   22  C   UNK     0     -35.036 -19.472  11.384  0.00  0.00     0.022 A 
HETATM   23  N   UNK     0     -35.512 -18.807  10.324  0.00  0.00    -0.361 N 
HETATM   24  C   UNK     0     -35.405 -17.485  10.570  0.00  0.00     0.021 A 
HETATM   25  C   UNK     0     -34.836 -17.296  11.815  0.00  0.00    -0.031 A 
HETATM   26  C   UNK     0     -34.478 -16.000  12.512  0.00  0.00     0.051 C 
HETATM   27  C   UNK     0     -34.591 -18.553  12.355  0.00  0.00    -0.027 A 
HETATM   28  C   UNK     0     -35.893 -16.336   9.706  0.00  0.00     0.115 C 
HETATM   29  H   UNK     0     -37.696 -18.200   8.308  0.00  0.00     0.165 HD
HETATM   30  H   UNK     0     -39.759 -19.337  10.751  0.00  0.00     0.165 HD
HETATM   31  H   UNK     0     -37.961 -20.336  11.720  0.00  0.00     0.165 HD
HETATM   32  H   UNK     0     -35.890 -19.264   9.372  0.00  0.00     0.165 HD
ENDROOT
BRANCH   6  33
HETATM   33  C   UNK     0     -40.734 -14.903   9.880  0.00  0.00     0.051 C 
BRANCH  33  34
HETATM   34  C   UNK     0     -41.013 -14.926  11.364  0.00  0.00     0.114 C 
BRANCH  34  35
HETATM   35  C   UNK     0     -41.276 -16.343  11.747  0.00  0.00     0.139 C 
HETATM   36  O   UNK     0     -40.492 -16.945  12.537  0.00  0.00    -0.650 OA
BRANCH  35  37
HETATM   37  O   UNK     0     -42.369 -17.057  11.272  0.00  0.00    -0.776 OA
HETATM   38  H   UNK     0     -42.981 -17.570  11.886  0.00  0.00     0.167 HD
ENDBRANCH  35  37
ENDBRANCH  34  35
ENDBRANCH  33  34
ENDBRANCH   6  33
BRANCH  27  39
HETATM   39  C   UNK     0     -33.915 -18.754  13.665  0.00  0.00     0.051 C 
BRANCH  39  40
HETATM   40  C   UNK     0     -32.562 -19.310  13.670  0.00  0.00     0.114 C 
BRANCH  40  41
HETATM   41  C   UNK     0     -32.255 -20.587  14.274  0.00  0.00     0.139 C 
HETATM   42  O   UNK     0     -31.281 -21.280  13.949  0.00  0.00    -0.650 OA
BRANCH  41  43
HETATM   43  O   UNK     0     -33.106 -21.089  15.298  0.00  0.00    -0.776 OA
HETATM   44  H   UNK     0     -32.641 -21.270  16.179  0.00  0.00     0.167 HD
ENDBRANCH  41  43
ENDBRANCH  40  41
ENDBRANCH  39  40
ENDBRANCH  27  39
BRANCH  11  45
HETATM   45  C   UNK     0     -41.354 -22.669   7.777  0.00  0.00     0.051 C 
BRANCH  45  46
HETATM   46  C   UNK     0     -40.232 -23.388   7.121  0.00  0.00     0.114 C 
BRANCH  46  47
HETATM   47  C   UNK     0     -40.775 -24.017   5.883  0.00  0.00     0.139 C 
HETATM   48  O   UNK     0     -41.206 -23.281   4.985  0.00  0.00    -0.650 OA
BRANCH  47  49
HETATM   49  O   UNK     0     -40.797 -25.382   5.740  0.00  0.00    -0.776 OA
HETATM   50  H   UNK     0     -40.743 -26.015   6.546  0.00  0.00     0.167 HD
ENDBRANCH  47  49
ENDBRANCH  46  47
ENDBRANCH  45  46
ENDBRANCH  11  45
BRANCH  18  51
HETATM   51  C   UNK     0     -35.061 -23.885  10.549  0.00  0.00     0.051 C 
BRANCH  51  52
HETATM   52  C   UNK     0     -35.531 -25.320  10.733  0.00  0.00     0.114 C 
BRANCH  52  53
HETATM   53  C   UNK     0     -34.431 -26.287  10.554  0.00  0.00     0.139 C 
HETATM   54  O   UNK     0     -34.503 -27.153   9.667  0.00  0.00    -0.650 OA
BRANCH  53  55
HETATM   55  O   UNK     0     -33.331 -26.224  11.374  0.00  0.00    -0.776 OA
HETATM   56  H   UNK     0     -32.742 -26.984  11.621  0.00  0.00     0.167 HD
ENDBRANCH  53  55
ENDBRANCH  52  53
ENDBRANCH  51  52
ENDBRANCH  18  51
TORSDOF 16
ENDMDL
MODEL 9
REMARK VINA RESULT:      -8.4      1.723      2.304
REMARK  16 active torsions:
REMARK  status: ('A' for Active; 'I' for Inactive)
REMARK    1  A    between atoms: C_6  and  C_7 
REMARK    2  A    between atoms: C_7  and  C_8 
REMARK    3  A    between atoms: C_8  and  C_9 
REMARK    4  A    between atoms: C_9  and  O_11 
REMARK    5  A    between atoms: C_16  and  C_17 
REMARK    6  A    between atoms: C_17  and  C_18 
REMARK    7  A    between atoms: C_18  and  C_19 
REMARK    8  A    between atoms: C_19  and  O_21 
REMARK    9  A    between atoms: C_28  and  C_29 
REMARK   10  A    between atoms: C_29  and  C_30 
REMARK   11  A    between atoms: C_30  and  C_31 
REMARK   12  A    between atoms: C_31  and  O_33 
REMARK   13  A    between atoms: C_42  and  C_43 
REMARK   14  A    between atoms: C_43  and  C_44 
REMARK   15  A    between atoms: C_44  and  C_45 
REMARK   16  A    between atoms: C_45  and  O_47 
ROOT
HETATM    1  C   UNK     0     -40.876 -16.266  10.134  0.00  0.00     0.051 C 
HETATM    2  C   UNK     0     -39.790 -17.010  10.885  0.00  0.00    -0.031 A 
HETATM    3  C   UNK     0     -39.834 -18.257  11.487  0.00  0.00     0.021 A 
HETATM    4  N   UNK     0     -38.638 -18.508  12.071  0.00  0.00    -0.361 N 
HETATM    5  C   UNK     0     -37.830 -17.451  11.846  0.00  0.00     0.022 A 
HETATM    6  C   UNK     0     -38.521 -16.494  11.110  0.00  0.00    -0.027 A 
HETATM    7  C   UNK     0     -36.387 -17.265  12.195  0.00  0.00     0.115 C 
HETATM    8  C   UNK     0     -35.471 -18.454  11.962  0.00  0.00     0.021 A 
HETATM    9  N   UNK     0     -35.518 -19.366  10.979  0.00  0.00    -0.361 N 
HETATM   10  C   UNK     0     -34.567 -20.293  11.222  0.00  0.00     0.022 A 
HETATM   11  C   UNK     0     -33.882 -19.964  12.388  0.00  0.00    -0.027 A 
HETATM   12  C   UNK     0     -34.446 -18.806  12.859  0.00  0.00    -0.031 A 
HETATM   13  C   UNK     0     -34.018 -18.071  14.110  0.00  0.00     0.051 C 
HETATM   14  C   UNK     0     -34.302 -21.549  10.397  0.00  0.00     0.115 C 
HETATM   15  C   UNK     0     -35.483 -22.506  10.335  0.00  0.00     0.021 A 
HETATM   16  N   UNK     0     -36.722 -22.252   9.875  0.00  0.00    -0.361 N 
HETATM   17  C   UNK     0     -37.487 -23.330  10.058  0.00  0.00     0.022 A 
HETATM   18  C   UNK     0     -36.706 -24.339  10.656  0.00  0.00    -0.027 A 
HETATM   19  C   UNK     0     -35.452 -23.810  10.823  0.00  0.00    -0.031 A 
HETATM   20  C   UNK     0     -34.282 -24.581  11.405  0.00  0.00     0.051 C 
HETATM   21  C   UNK     0     -38.959 -23.536   9.782  0.00  0.00     0.115 C 
HETATM   22  C   UNK     0     -39.876 -22.349   9.967  0.00  0.00     0.022 A 
HETATM   23  N   UNK     0     -39.849 -21.423  10.934  0.00  0.00    -0.361 N 
HETATM   24  C   UNK     0     -40.752 -20.468  10.630  0.00  0.00     0.021 A 
HETATM   25  C   UNK     0     -41.383 -20.793   9.445  0.00  0.00    -0.031 A 
HETATM   26  C   UNK     0     -42.492 -20.058   8.722  0.00  0.00     0.051 C 
HETATM   27  C   UNK     0     -40.839 -21.993   9.001  0.00  0.00    -0.027 A 
HETATM   28  C   UNK     0     -41.021 -19.172  11.375  0.00  0.00     0.115 C 
HETATM   29  H   UNK     0     -38.386 -19.413  12.671  0.00  0.00     0.165 HD
HETATM   30  H   UNK     0     -36.189 -19.332  10.086  0.00  0.00     0.165 HD
HETATM   31  H   UNK     0     -37.053 -21.308   9.368  0.00  0.00     0.165 HD
HETATM   32  H   UNK     0     -39.223 -21.456  11.863  0.00  0.00     0.165 HD
ENDROOT
BRANCH   6  33
HETATM   33  C   UNK     0     -38.072 -15.143  10.612  0.00  0.00     0.051 C 
BRANCH  33  34
HETATM   34  C   UNK     0     -36.941 -15.287   9.621  0.00  0.00     0.114 C 
BRANCH  34  35
HETATM   35  C   UNK     0     -35.740 -14.632  10.216  0.00  0.00     0.139 C 
HETATM   36  O   UNK     0     -35.872 -13.782  11.144  0.00  0.00    -0.650 OA
BRANCH  35  37
HETATM   37  O   UNK     0     -34.447 -14.917   9.796  0.00  0.00    -0.776 OA
HETATM   38  H   UNK     0     -33.725 -14.214   9.775  0.00  0.00     0.167 HD
ENDBRANCH  35  37
ENDBRANCH  34  35
ENDBRANCH  33  34
ENDBRANCH   6  33
BRANCH  27  39
HETATM   39  C   UNK     0     -41.320 -22.700   7.783  0.00  0.00     0.051 C 
BRANCH  39  40
HETATM   40  C   UNK     0     -40.328 -23.305   6.894  0.00  0.00     0.114 C 
BRANCH  40  41
HETATM   41  C   UNK     0     -40.699 -24.191   5.814  0.00  0.00     0.139 C 
HETATM   42  O   UNK     0     -40.289 -25.355   5.712  0.00  0.00    -0.650 OA
BRANCH  41  43
HETATM   43  O   UNK     0     -41.584 -23.716   4.804  0.00  0.00    -0.776 OA
HETATM   44  H   UNK     0     -42.532 -24.064   4.879  0.00  0.00     0.167 HD
ENDBRANCH  41  43
ENDBRANCH  40  41
ENDBRANCH  39  40
ENDBRANCH  27  39
BRANCH  11  45
HETATM   45  C   UNK     0     -32.741 -20.691  13.047  0.00  0.00     0.051 C 
BRANCH  45  46
HETATM   46  C   UNK     0     -33.138 -21.947  13.732  0.00  0.00     0.114 C 
BRANCH  46  47
HETATM   47  C   UNK     0     -32.046 -22.937  13.507  0.00  0.00     0.139 C 
HETATM   48  O   UNK     0     -31.140 -22.649  12.713  0.00  0.00    -0.650 OA
BRANCH  47  49
HETATM   49  O   UNK     0     -32.043 -24.142  14.163  0.00  0.00    -0.776 OA
HETATM   50  H   UNK     0     -31.174 -24.592  14.474  0.00  0.00     0.167 HD
ENDBRANCH  47  49
ENDBRANCH  46  47
ENDBRANCH  45  46
ENDBRANCH  11  45
BRANCH  18  51
HETATM   51  C   UNK     0     -37.125 -25.737  11.028  0.00  0.00     0.051 C 
BRANCH  51  52
HETATM   52  C   UNK     0     -36.896 -26.594   9.793  0.00  0.00     0.114 C 
BRANCH  52  53
HETATM   53  C   UNK     0     -36.531 -27.980  10.145  0.00  0.00     0.139 C 
HETATM   54  O   UNK     0     -35.984 -28.221  11.233  0.00  0.00    -0.650 OA
BRANCH  53  55
HETATM   55  O   UNK     0     -36.797 -28.998   9.262  0.00  0.00    -0.776 OA
HETATM   56  H   UNK     0     -36.179 -29.344   8.566  0.00  0.00     0.167 HD
ENDBRANCH  53  55
ENDBRANCH  52  53
ENDBRANCH  51  52
ENDBRANCH  18  51
TORSDOF 16
ENDMDL
MODEL 10
REMARK VINA RESULT:      -8.1     29.687     35.899
REMARK  16 active torsions:
REMARK  status: ('A' for Active; 'I' for Inactive)
REMARK    1  A    between atoms: C_6  and  C_7 
REMARK    2  A    between atoms: C_7  and  C_8 
REMARK    3  A    between atoms: C_8  and  C_9 
REMARK    4  A    between atoms: C_9  and  O_11 
REMARK    5  A    between atoms: C_16  and  C_17 
REMARK    6  A    between atoms: C_17  and  C_18 
REMARK    7  A    between atoms: C_18  and  C_19 
REMARK    8  A    between atoms: C_19  and  O_21 
REMARK    9  A    between atoms: C_28  and  C_29 
REMARK   10  A    between atoms: C_29  and  C_30 
REMARK   11  A    between atoms: C_30  and  C_31 
REMARK   12  A    between atoms: C_31  and  O_33 
REMARK   13  A    between atoms: C_42  and  C_43 
REMARK   14  A    between atoms: C_43  and  C_44 
REMARK   15  A    between atoms: C_44  and  C_45 
REMARK   16  A    between atoms: C_45  and  O_47 
ROOT
HETATM    1  C   UNK     0     -21.547  14.828   7.258  0.00  0.00     0.051 C 
HETATM    2  C   UNK     0     -22.252  13.516   7.536  0.00  0.00    -0.031 A 
HETATM    3  C   UNK     0     -21.860  12.223   7.226  0.00  0.00     0.021 A 
HETATM    4  N   UNK     0     -22.819  11.360   7.638  0.00  0.00    -0.361 N 
HETATM    5  C   UNK     0     -23.810  12.074   8.211  0.00  0.00     0.022 A 
HETATM    6  C   UNK     0     -23.489  13.426   8.161  0.00  0.00    -0.027 A 
HETATM    7  C   UNK     0     -25.047  11.598   8.905  0.00  0.00     0.115 C 
HETATM    8  C   UNK     0     -24.890  10.413   9.842  0.00  0.00     0.021 A 
HETATM    9  N   UNK     0     -23.856  10.111  10.642  0.00  0.00    -0.361 N 
HETATM   10  C   UNK     0     -24.109   8.919  11.223  0.00  0.00     0.022 A 
HETATM   11  C   UNK     0     -25.345   8.445  10.793  0.00  0.00    -0.027 A 
HETATM   12  C   UNK     0     -25.843   9.381   9.923  0.00  0.00    -0.031 A 
HETATM   13  C   UNK     0     -27.172   9.291   9.207  0.00  0.00     0.051 C 
HETATM   14  C   UNK     0     -23.178   8.158  12.162  0.00  0.00     0.115 C 
HETATM   15  C   UNK     0     -21.846   7.778  11.534  0.00  0.00     0.021 A 
HETATM   16  N   UNK     0     -20.925   8.603  11.002  0.00  0.00    -0.361 N 
HETATM   17  C   UNK     0     -19.929   7.876  10.491  0.00  0.00     0.022 A 
HETATM   18  C   UNK     0     -20.210   6.512  10.709  0.00  0.00    -0.027 A 
HETATM   19  C   UNK     0     -21.413   6.465  11.364  0.00  0.00    -0.031 A 
HETATM   20  C   UNK     0     -22.073   5.178  11.825  0.00  0.00     0.051 C 
HETATM   21  C   UNK     0     -18.699   8.312   9.727  0.00  0.00     0.115 C 
HETATM   22  C   UNK     0     -18.830   9.517   8.825  0.00  0.00     0.022 A 
HETATM   23  N   UNK     0     -19.850   9.845   8.021  0.00  0.00    -0.361 N 
HETATM   24  C   UNK     0     -19.611  11.071   7.513  0.00  0.00     0.021 A 
HETATM   25  C   UNK     0     -18.403  11.540   7.993  0.00  0.00    -0.031 A 
HETATM   26  C   UNK     0     -17.693  12.840   7.680  0.00  0.00     0.051 C 
HETATM   27  C   UNK     0     -17.884  10.562   8.835  0.00  0.00    -0.027 A 
HETATM   28  C   UNK     0     -20.521  11.903   6.625  0.00  0.00     0.115 C 
HETATM   29  H   UNK     0     -22.807  10.256   7.485  0.00  0.00     0.165 HD
HETATM   30  H   UNK     0     -22.968  10.760  10.837  0.00  0.00     0.165 HD
HETATM   31  H   UNK     0     -20.954   9.723  11.029  0.00  0.00     0.165 HD
HETATM   32  H   UNK     0     -20.728   9.195   7.770  0.00  0.00     0.165 HD
ENDROOT
BRANCH   6  33
HETATM   33  C   UNK     0     -24.260  14.625   8.655  0.00  0.00     0.051 C 
BRANCH  33  34
HETATM   34  C   UNK     0     -25.324  15.023   7.660  0.00  0.00     0.114 C 
BRANCH  34  35
HETATM   35  C   UNK     0     -24.904  16.318   7.052  0.00  0.00     0.139 C 
HETATM   36  O   UNK     0     -24.188  17.129   7.709  0.00  0.00    -0.650 OA
BRANCH  35  37
HETATM   37  O   UNK     0     -25.265  16.693   5.763  0.00  0.00    -0.776 OA
HETATM   38  H   UNK     0     -24.788  16.338   4.950  0.00  0.00     0.167 HD
ENDBRANCH  35  37
ENDBRANCH  34  35
ENDBRANCH  33  34
ENDBRANCH   6  33
BRANCH  27  39
HETATM   39  C   UNK     0     -16.552  10.679   9.488  0.00  0.00     0.051 C 
BRANCH  39  40
HETATM   40  C   UNK     0     -15.417   9.988   8.878  0.00  0.00     0.114 C 
BRANCH  40  41
HETATM   41  C   UNK     0     -14.294  10.701   8.313  0.00  0.00     0.139 C 
HETATM   42  O   UNK     0     -14.294  11.922   8.105  0.00  0.00    -0.650 OA
BRANCH  41  43
HETATM   43  O   UNK     0     -13.117   9.976   7.970  0.00  0.00    -0.776 OA
HETATM   44  H   UNK     0     -13.285   9.134   7.434  0.00  0.00     0.167 HD
ENDBRANCH  41  43
ENDBRANCH  40  41
ENDBRANCH  39  40
ENDBRANCH  27  39
BRANCH  11  45
HETATM   45  C   UNK     0     -26.049   7.170  11.173  0.00  0.00     0.051 C 
BRANCH  45  46
HETATM   46  C   UNK     0     -25.405   5.941  10.644  0.00  0.00     0.114 C 
BRANCH  46  47
HETATM   47  C   UNK     0     -26.482   5.098  10.049  0.00  0.00     0.139 C 
HETATM   48  O   UNK     0     -27.661   5.443  10.211  0.00  0.00    -0.650 OA
BRANCH  47  49
HETATM   49  O   UNK     0     -26.176   3.965   9.340  0.00  0.00    -0.776 OA
HETATM   50  H   UNK     0     -26.651   3.071   9.509  0.00  0.00     0.167 HD
ENDBRANCH  47  49
ENDBRANCH  46  47
ENDBRANCH  45  46
ENDBRANCH  11  45
BRANCH  18  51
HETATM   51  C   UNK     0     -19.368   5.321  10.332  0.00  0.00     0.051 C 
BRANCH  51  52
HETATM   52  C   UNK     0     -18.242   5.255  11.353  0.00  0.00     0.114 C 
BRANCH  52  53
HETATM   53  C   UNK     0     -17.059   4.551  10.822  0.00  0.00     0.139 C 
HETATM   54  O   UNK     0     -16.082   5.198  10.414  0.00  0.00    -0.650 OA
BRANCH  53  55
HETATM   55  O   UNK     0     -17.048   3.178  10.779  0.00  0.00    -0.776 OA
HETATM   56  H   UNK     0     -17.772   2.599  10.422  0.00  0.00     0.167 HD
ENDBRANCH  53  55
ENDBRANCH  52  53
ENDBRANCH  51  52
ENDBRANCH  18  51
TORSDOF 16
ENDMDL
MODEL 11
REMARK VINA RESULT:      -8.1     29.448     33.859
REMARK  16 active torsions:
REMARK  status: ('A' for Active; 'I' for Inactive)
REMARK    1  A    between atoms: C_6  and  C_7 
REMARK    2  A    between atoms: C_7  and  C_8 
REMARK    3  A    between atoms: C_8  and  C_9 
REMARK    4  A    between atoms: C_9  and  O_11 
REMARK    5  A    between atoms: C_16  and  C_17 
REMARK    6  A    between atoms: C_17  and  C_18 
REMARK    7  A    between atoms: C_18  and  C_19 
REMARK    8  A    between atoms: C_19  and  O_21 
REMARK    9  A    between atoms: C_28  and  C_29 
REMARK   10  A    between atoms: C_29  and  C_30 
REMARK   11  A    between atoms: C_30  and  C_31 
REMARK   12  A    between atoms: C_31  and  O_33 
REMARK   13  A    between atoms: C_42  and  C_43 
REMARK   14  A    between atoms: C_43  and  C_44 
REMARK   15  A    between atoms: C_44  and  C_45 
REMARK   16  A    between atoms: C_45  and  O_47 
ROOT
HETATM    1  C   UNK     0     -24.895  13.281   7.302  0.00  0.00     0.051 C 
HETATM    2  C   UNK     0     -23.880  12.628   8.218  0.00  0.00    -0.031 A 
HETATM    3  C   UNK     0     -24.039  12.151   9.509  0.00  0.00     0.021 A 
HETATM    4  N   UNK     0     -22.851  11.675   9.953  0.00  0.00    -0.361 N 
HETATM    5  C   UNK     0     -21.941  11.830   8.970  0.00  0.00     0.022 A 
HETATM    6  C   UNK     0     -22.550  12.425   7.870  0.00  0.00    -0.027 A 
HETATM    7  C   UNK     0     -20.513  11.385   8.916  0.00  0.00     0.115 C 
HETATM    8  C   UNK     0     -20.211   9.996   9.450  0.00  0.00     0.021 A 
HETATM    9  N   UNK     0     -20.964   8.889   9.373  0.00  0.00    -0.361 N 
HETATM   10  C   UNK     0     -20.343   7.910  10.065  0.00  0.00     0.022 A 
HETATM   11  C   UNK     0     -19.152   8.398  10.594  0.00  0.00    -0.027 A 
HETATM   12  C   UNK     0     -19.062   9.712  10.210  0.00  0.00    -0.031 A 
HETATM   13  C   UNK     0     -17.924  10.647  10.552  0.00  0.00     0.051 C 
HETATM   14  C   UNK     0     -20.870   6.497  10.299  0.00  0.00     0.115 C 
HETATM   15  C   UNK     0     -22.189   6.450  11.054  0.00  0.00     0.021 A 
HETATM   16  N   UNK     0     -23.358   7.018  10.702  0.00  0.00    -0.361 N 
HETATM   17  C   UNK     0     -24.257   6.804  11.666  0.00  0.00     0.022 A 
HETATM   18  C   UNK     0     -23.648   6.052  12.690  0.00  0.00    -0.027 A 
HETATM   19  C   UNK     0     -22.353   5.836  12.294  0.00  0.00    -0.031 A 
HETATM   20  C   UNK     0     -21.349   5.029  13.097  0.00  0.00     0.051 C 
HETATM   21  C   UNK     0     -25.683   7.290  11.789  0.00  0.00     0.115 C 
HETATM   22  C   UNK     0     -26.008   8.652  11.222  0.00  0.00     0.022 A 
HETATM   23  N   UNK     0     -25.275   9.771  11.280  0.00  0.00    -0.361 N 
HETATM   24  C   UNK     0     -25.874  10.710  10.520  0.00  0.00     0.021 A 
HETATM   25  C   UNK     0     -27.027  10.185   9.967  0.00  0.00    -0.031 A 
HETATM   26  C   UNK     0     -28.052  10.861   9.080  0.00  0.00     0.051 C 
HETATM   27  C   UNK     0     -27.134   8.869  10.403  0.00  0.00    -0.027 A 
HETATM   28  C   UNK     0     -25.372  12.108  10.201  0.00  0.00     0.115 C 
HETATM   29  H   UNK     0     -22.655  11.269  10.973  0.00  0.00     0.165 HD
HETATM   30  H   UNK     0     -21.911   8.780   8.790  0.00  0.00     0.165 HD
HETATM   31  H   UNK     0     -23.567   7.541   9.733  0.00  0.00     0.165 HD
HETATM   32  H   UNK     0     -24.349   9.923  11.893  0.00  0.00     0.165 HD
ENDROOT
BRANCH   6  33
HETATM   33  C   UNK     0     -21.972  12.814   6.533  0.00  0.00     0.051 C 
BRANCH  33  34
HETATM   34  C   UNK     0     -21.156  14.079   6.650  0.00  0.00     0.114 C 
BRANCH  34  35
HETATM   35  C   UNK     0     -19.859  13.840   5.954  0.00  0.00     0.139 C 
HETATM   36  O   UNK     0     -19.207  14.811   5.471  0.00  0.00    -0.650 OA
BRANCH  35  37
HETATM   37  O   UNK     0     -19.311  12.572   5.805  0.00  0.00    -0.776 OA
HETATM   38  H   UNK     0     -19.528  11.985   5.015  0.00  0.00     0.167 HD
ENDBRANCH  35  37
ENDBRANCH  34  35
ENDBRANCH  33  34
ENDBRANCH   6  33
BRANCH  27  39
HETATM   39  C   UNK     0     -28.293   7.998  10.070  0.00  0.00     0.051 C 
BRANCH  39  40
HETATM   40  C   UNK     0     -28.031   6.707   9.434  0.00  0.00     0.114 C 
BRANCH  40  41
HETATM   41  C   UNK     0     -27.828   5.498  10.200  0.00  0.00     0.139 C 
HETATM   42  O   UNK     0     -28.477   5.216  11.217  0.00  0.00    -0.650 OA
BRANCH  41  43
HETATM   43  O   UNK     0     -26.833   4.571   9.778  0.00  0.00    -0.776 OA
HETATM   44  H   UNK     0     -27.141   3.606   9.760  0.00  0.00     0.167 HD
ENDBRANCH  41  43
ENDBRANCH  40  41
ENDBRANCH  39  40
ENDBRANCH  27  39
BRANCH  11  45
HETATM   45  C   UNK     0     -18.125   7.677  11.425  0.00  0.00     0.051 C 
BRANCH  45  46
HETATM   46  C   UNK     0     -17.118   6.929  10.629  0.00  0.00     0.114 C 
BRANCH  46  47
HETATM   47  C   UNK     0     -16.997   5.572  11.235  0.00  0.00     0.139 C 
HETATM   48  O   UNK     0     -18.032   4.935  11.475  0.00  0.00    -0.650 OA
BRANCH  47  49
HETATM   49  O   UNK     0     -15.766   5.038  11.523  0.00  0.00    -0.776 OA
HETATM   50  H   UNK     0     -15.519   4.073  11.276  0.00  0.00     0.167 HD
ENDBRANCH  47  49
ENDBRANCH  46  47
ENDBRANCH  45  46
ENDBRANCH  11  45
BRANCH  18  51
HETATM   51  C   UNK     0     -24.271   5.550  13.966  0.00  0.00     0.051 C 
BRANCH  51  52
HETATM   52  C   UNK     0     -24.034   6.630  15.011  0.00  0.00     0.114 C 
BRANCH  52  53
HETATM   53  C   UNK     0     -23.666   6.058  16.320  0.00  0.00     0.139 C 
HETATM   54  O   UNK     0     -24.551   5.683  17.105  0.00  0.00    -0.650 OA
BRANCH  53  55
HETATM   55  O   UNK     0     -22.341   5.946  16.664  0.00  0.00    -0.776 OA
HETATM   56  H   UNK     0     -21.988   5.754  17.572  0.00  0.00     0.167 HD
ENDBRANCH  53  55
ENDBRANCH  52  53
ENDBRANCH  51  52
ENDBRANCH  18  51
TORSDOF 16
ENDMDL
MODEL 12
REMARK VINA RESULT:      -8.1     28.190     32.471
REMARK  16 active torsions:
REMARK  status: ('A' for Active; 'I' for Inactive)
REMARK    1  A    between atoms: C_6  and  C_7 
REMARK    2  A    between atoms: C_7  and  C_8 
REMARK    3  A    between atoms: C_8  and  C_9 
REMARK    4  A    between atoms: C_9  and  O_11 
REMARK    5  A    between atoms: C_16  and  C_17 
REMARK    6  A    between atoms: C_17  and  C_18 
REMARK    7  A    between atoms: C_18  and  C_19 
REMARK    8  A    between atoms: C_19  and  O_21 
REMARK    9  A    between atoms: C_28  and  C_29 
REMARK   10  A    between atoms: C_29  and  C_30 
REMARK   11  A    between atoms: C_30  and  C_31 
REMARK   12  A    between atoms: C_31  and  O_33 
REMARK   13  A    between atoms: C_42  and  C_43 
REMARK   14  A    between atoms: C_43  and  C_44 
REMARK   15  A    between atoms: C_44  and  C_45 
REMARK   16  A    between atoms: C_45  and  O_47 
ROOT
HETATM    1  C   UNK     0     -12.245  -8.320  -0.860  0.00  0.00     0.051 C 
HETATM    2  C   UNK     0     -12.067  -9.283  -2.016  0.00  0.00    -0.031 A 
HETATM    3  C   UNK     0     -10.937  -9.549  -2.774  0.00  0.00     0.021 A 
HETATM    4  N   UNK     0     -11.248 -10.461  -3.725  0.00  0.00    -0.361 N 
HETATM    5  C   UNK     0     -12.549 -10.788  -3.585  0.00  0.00     0.022 A 
HETATM    6  C   UNK     0     -13.093 -10.068  -2.527  0.00  0.00    -0.027 A 
HETATM    7  C   UNK     0     -13.358 -11.812  -4.319  0.00  0.00     0.115 C 
HETATM    8  C   UNK     0     -12.691 -13.152  -4.574  0.00  0.00     0.021 A 
HETATM    9  N   UNK     0     -11.835 -13.824  -3.788  0.00  0.00    -0.361 N 
HETATM   10  C   UNK     0     -11.426 -14.923  -4.456  0.00  0.00     0.022 A 
HETATM   11  C   UNK     0     -12.042 -14.965  -5.704  0.00  0.00    -0.027 A 
HETATM   12  C   UNK     0     -12.840 -13.853  -5.785  0.00  0.00    -0.031 A 
HETATM   13  C   UNK     0     -13.708 -13.484  -6.967  0.00  0.00     0.051 C 
HETATM   14  C   UNK     0     -10.402 -15.945  -3.970  0.00  0.00     0.115 C 
HETATM   15  C   UNK     0      -9.023 -15.360  -3.712  0.00  0.00     0.021 A 
HETATM   16  N   UNK     0      -8.698 -14.366  -2.864  0.00  0.00    -0.361 N 
HETATM   17  C   UNK     0      -7.395 -14.098  -2.981  0.00  0.00     0.022 A 
HETATM   18  C   UNK     0      -6.844 -14.965  -3.946  0.00  0.00    -0.027 A 
HETATM   19  C   UNK     0      -7.873 -15.750  -4.395  0.00  0.00    -0.031 A 
HETATM   20  C   UNK     0      -7.706 -16.854  -5.423  0.00  0.00     0.051 C 
HETATM   21  C   UNK     0      -6.558 -13.033  -2.310  0.00  0.00     0.115 C 
HETATM   22  C   UNK     0      -7.222 -11.710  -2.010  0.00  0.00     0.022 A 
HETATM   23  N   UNK     0      -8.081 -11.020  -2.773  0.00  0.00    -0.361 N 
HETATM   24  C   UNK     0      -8.535  -9.972  -2.057  0.00  0.00     0.021 A 
HETATM   25  C   UNK     0      -7.946  -9.981  -0.807  0.00  0.00    -0.031 A 
HETATM   26  C   UNK     0      -8.107  -8.992   0.329  0.00  0.00     0.051 C 
HETATM   27  C   UNK     0      -7.102 -11.084  -0.753  0.00  0.00    -0.027 A 
HETATM   28  C   UNK     0      -9.591  -8.958  -2.461  0.00  0.00     0.115 C 
HETATM   29  H   UNK     0     -10.557 -10.837  -4.514  0.00  0.00     0.165 HD
HETATM   30  H   UNK     0     -11.557 -13.551  -2.741  0.00  0.00     0.165 HD
HETATM   31  H   UNK     0      -9.391 -13.876  -2.132  0.00  0.00     0.165 HD
HETATM   32  H   UNK     0      -8.341 -11.243  -3.840  0.00  0.00     0.165 HD
ENDROOT
BRANCH   6  33
HETATM   33  C   UNK     0     -14.495 -10.066  -1.973  0.00  0.00     0.051 C 
BRANCH  33  34
HETATM   34  C   UNK     0     -15.423  -9.278  -2.866  0.00  0.00     0.114 C 
BRANCH  34  35
HETATM   35  C   UNK     0     -16.367  -8.534  -1.984  0.00  0.00     0.139 C 
HETATM   36  O   UNK     0     -17.523  -8.230  -2.400  0.00  0.00    -0.650 OA
BRANCH  35  37
HETATM   37  O   UNK     0     -16.037  -8.146  -0.691  0.00  0.00    -0.776 OA
HETATM   38  H   UNK     0     -15.427  -7.366  -0.506  0.00  0.00     0.167 HD
ENDBRANCH  35  37
ENDBRANCH  34  35
ENDBRANCH  33  34
ENDBRANCH   6  33
BRANCH  27  39
HETATM   39  C   UNK     0      -6.237 -11.386   0.420  0.00  0.00     0.051 C 
BRANCH  39  40
HETATM   40  C   UNK     0      -6.299 -12.727   1.000  0.00  0.00     0.114 C 
BRANCH  40  41
HETATM   41  C   UNK     0      -5.112 -13.511   1.257  0.00  0.00     0.139 C 
HETATM   42  O   UNK     0      -4.183 -13.128   1.981  0.00  0.00    -0.650 OA
BRANCH  41  43
HETATM   43  O   UNK     0      -4.987 -14.794   0.653  0.00  0.00    -0.776 OA
HETATM   44  H   UNK     0      -5.429 -14.874  -0.256  0.00  0.00     0.167 HD
ENDBRANCH  41  43
ENDBRANCH  40  41
ENDBRANCH  39  40
ENDBRANCH  27  39
BRANCH  11  45
HETATM   45  C   UNK     0     -11.902 -16.000  -6.788  0.00  0.00     0.051 C 
BRANCH  45  46
HETATM   46  C   UNK     0     -12.977 -17.025  -6.789  0.00  0.00     0.114 C 
BRANCH  46  47
HETATM   47  C   UNK     0     -12.341 -18.330  -7.132  0.00  0.00     0.139 C 
HETATM   48  O   UNK     0     -11.289 -18.322  -7.786  0.00  0.00    -0.650 OA
BRANCH  47  49
HETATM   49  O   UNK     0     -12.909 -19.514  -6.735  0.00  0.00    -0.776 OA
HETATM   50  H   UNK     0     -13.570 -20.028  -7.330  0.00  0.00     0.167 HD
ENDBRANCH  47  49
ENDBRANCH  46  47
ENDBRANCH  45  46
ENDBRANCH  11  45
BRANCH  18  51
HETATM   51  C   UNK     0      -5.410 -15.053  -4.399  0.00  0.00     0.051 C 
BRANCH  51  52
HETATM   52  C   UNK     0      -4.564 -15.089  -3.134  0.00  0.00     0.114 C 
BRANCH  52  53
HETATM   53  C   UNK     0      -4.580 -16.421  -2.500  0.00  0.00     0.139 C 
HETATM   54  O   UNK     0      -4.150 -16.564  -1.344  0.00  0.00    -0.650 OA
BRANCH  53  55
HETATM   55  O   UNK     0      -5.069 -17.499  -3.196  0.00  0.00    -0.776 OA
HETATM   56  H   UNK     0      -6.019 -17.658  -3.436  0.00  0.00     0.167 HD
ENDBRANCH  53  55
ENDBRANCH  52  53
ENDBRANCH  51  52
ENDBRANCH  18  51
TORSDOF 16
ENDMDL
MODEL 13
REMARK VINA RESULT:      -8.0     30.021     36.523
REMARK  16 active torsions:
REMARK  status: ('A' for Active; 'I' for Inactive)
REMARK    1  A    between atoms: C_6  and  C_7 
REMARK    2  A    between atoms: C_7  and  C_8 
REMARK    3  A    between atoms: C_8  and  C_9 
REMARK    4  A    between atoms: C_9  and  O_11 
REMARK    5  A    between atoms: C_16  and  C_17 
REMARK    6  A    between atoms: C_17  and  C_18 
REMARK    7  A    between atoms: C_18  and  C_19 
REMARK    8  A    between atoms: C_19  and  O_21 
REMARK    9  A    between atoms: C_28  and  C_29 
REMARK   10  A    between atoms: C_29  and  C_30 
REMARK   11  A    between atoms: C_30  and  C_31 
REMARK   12  A    between atoms: C_31  and  O_33 
REMARK   13  A    between atoms: C_42  and  C_43 
REMARK   14  A    between atoms: C_43  and  C_44 
REMARK   15  A    between atoms: C_44  and  C_45 
REMARK   16  A    between atoms: C_45  and  O_47 
ROOT
HETATM    1  C   UNK     0     -23.072  14.011   7.433  0.00  0.00     0.051 C 
HETATM    2  C   UNK     0     -22.888  12.544   7.763  0.00  0.00    -0.031 A 
HETATM    3  C   UNK     0     -21.902  11.665   7.344  0.00  0.00     0.021 A 
HETATM    4  N   UNK     0     -22.152  10.440   7.864  0.00  0.00    -0.361 N 
HETATM    5  C   UNK     0     -23.271  10.521   8.613  0.00  0.00     0.022 A 
HETATM    6  C   UNK     0     -23.759  11.823   8.570  0.00  0.00    -0.027 A 
HETATM    7  C   UNK     0     -23.920   9.481   9.471  0.00  0.00     0.115 C 
HETATM    8  C   UNK     0     -22.996   8.627  10.323  0.00  0.00     0.021 A 
HETATM    9  N   UNK     0     -21.859   8.984  10.939  0.00  0.00    -0.361 N 
HETATM   10  C   UNK     0     -21.323   7.881  11.503  0.00  0.00     0.022 A 
HETATM   11  C   UNK     0     -22.143   6.785  11.251  0.00  0.00    -0.027 A 
HETATM   12  C   UNK     0     -23.199   7.248  10.508  0.00  0.00    -0.031 A 
HETATM   13  C   UNK     0     -24.350   6.405  10.005  0.00  0.00     0.051 C 
HETATM   14  C   UNK     0     -19.997   7.806  12.253  0.00  0.00     0.115 C 
HETATM   15  C   UNK     0     -18.790   8.188  11.410  0.00  0.00     0.021 A 
HETATM   16  N   UNK     0     -18.568   9.354  10.775  0.00  0.00    -0.361 N 
HETATM   17  C   UNK     0     -17.428   9.267  10.086  0.00  0.00     0.022 A 
HETATM   18  C   UNK     0     -16.876   7.987  10.289  0.00  0.00    -0.027 A 
HETATM   19  C   UNK     0     -17.738   7.321  11.121  0.00  0.00    -0.031 A 
HETATM   20  C   UNK     0     -17.502   5.909  11.626  0.00  0.00     0.051 C 
HETATM   21  C   UNK     0     -16.775  10.267   9.159  0.00  0.00     0.115 C 
HETATM   22  C   UNK     0     -17.682  11.153   8.338  0.00  0.00     0.022 A 
HETATM   23  N   UNK     0     -18.823  10.826   7.717  0.00  0.00    -0.361 N 
HETATM   24  C   UNK     0     -19.378  11.953   7.229  0.00  0.00     0.021 A 
HETATM   25  C   UNK     0     -18.571  13.032   7.535  0.00  0.00    -0.031 A 
HETATM   26  C   UNK     0     -18.750  14.490   7.168  0.00  0.00     0.051 C 
HETATM   27  C   UNK     0     -17.479  12.545   8.244  0.00  0.00    -0.027 A 
HETATM   28  C   UNK     0     -20.718  12.101   6.528  0.00  0.00     0.115 C 
HETATM   29  H   UNK     0     -21.559   9.517   7.666  0.00  0.00     0.165 HD
HETATM   30  H   UNK     0     -21.457  10.024  11.020  0.00  0.00     0.165 HD
HETATM   31  H   UNK     0     -19.204  10.274  10.853  0.00  0.00     0.165 HD
HETATM   32  H   UNK     0     -19.225   9.788   7.579  0.00  0.00     0.165 HD
ENDROOT
BRANCH   6  33
HETATM   33  C   UNK     0     -24.976  12.425   9.226  0.00  0.00     0.051 C 
BRANCH  33  34
HETATM   34  C   UNK     0     -26.130  12.491   8.255  0.00  0.00     0.114 C 
BRANCH  34  35
HETATM   35  C   UNK     0     -26.954  11.264   8.457  0.00  0.00     0.139 C 
HETATM   36  O   UNK     0     -27.170  10.476   7.491  0.00  0.00    -0.650 OA
BRANCH  35  37
HETATM   37  O   UNK     0     -27.511  10.930   9.685  0.00  0.00    -0.776 OA
HETATM   38  H   UNK     0     -26.968  10.924  10.534  0.00  0.00     0.167 HD
ENDBRANCH  35  37
ENDBRANCH  34  35
ENDBRANCH  33  34
ENDBRANCH   6  33
BRANCH  27  39
HETATM   39  C   UNK     0     -16.350  13.408   8.686  0.00  0.00     0.051 C 
BRANCH  39  40
HETATM   40  C   UNK     0     -15.120  13.401   7.895  0.00  0.00     0.114 C 
BRANCH  40  41
HETATM   41  C   UNK     0     -14.075  12.424   8.103  0.00  0.00     0.139 C 
HETATM   42  O   UNK     0     -13.727  12.023   9.222  0.00  0.00    -0.650 OA
BRANCH  41  43
HETATM   43  O   UNK     0     -13.399  11.883   6.973  0.00  0.00    -0.776 OA
HETATM   44  H   UNK     0     -12.575  11.338   7.198  0.00  0.00     0.167 HD
ENDBRANCH  41  43
ENDBRANCH  40  41
ENDBRANCH  39  40
ENDBRANCH  27  39
BRANCH  11  45
HETATM   45  C   UNK     0     -21.962   5.354  11.684  0.00  0.00     0.051 C 
BRANCH  45  46
HETATM   46  C   UNK     0     -22.472   5.065  13.048  0.00  0.00     0.114 C 
BRANCH  46  47
HETATM   47  C   UNK     0     -23.766   4.341  12.892  0.00  0.00     0.139 C 
HETATM   48  O   UNK     0     -24.818   4.953  13.127  0.00  0.00    -0.650 OA
BRANCH  47  49
HETATM   49  O   UNK     0     -23.794   3.027  12.499  0.00  0.00    -0.776 OA
HETATM   50  H   UNK     0     -24.672   2.502  12.413  0.00  0.00     0.167 HD
ENDBRANCH  47  49
ENDBRANCH  46  47
ENDBRANCH  45  46
ENDBRANCH  11  45
BRANCH  18  51
HETATM   51  C   UNK     0     -15.587   7.435   9.738  0.00  0.00     0.051 C 
BRANCH  51  52
HETATM   52  C   UNK     0     -14.481   7.943  10.651  0.00  0.00     0.114 C 
BRANCH  52  53
HETATM   53  C   UNK     0     -13.196   8.073   9.938  0.00  0.00     0.139 C 
HETATM   54  O   UNK     0     -12.518   7.063   9.691  0.00  0.00    -0.650 OA
BRANCH  53  55
HETATM   55  O   UNK     0     -12.754   9.315   9.553  0.00  0.00    -0.776 OA
HETATM   56  H   UNK     0     -12.289   9.533   8.703  0.00  0.00     0.167 HD
ENDBRANCH  53  55
ENDBRANCH  52  53
ENDBRANCH  51  52
ENDBRANCH  18  51
TORSDOF 16
ENDMDL
MODEL 14
REMARK VINA RESULT:      -7.9     29.762     36.613
REMARK  16 active torsions:
REMARK  status: ('A' for Active; 'I' for Inactive)
REMARK    1  A    between atoms: C_6  and  C_7 
REMARK    2  A    between atoms: C_7  and  C_8 
REMARK    3  A    between atoms: C_8  and  C_9 
REMARK    4  A    between atoms: C_9  and  O_11 
REMARK    5  A    between atoms: C_16  and  C_17 
REMARK    6  A    between atoms: C_17  and  C_18 
REMARK    7  A    between atoms: C_18  and  C_19 
REMARK    8  A    between atoms: C_19  and  O_21 
REMARK    9  A    between atoms: C_28  and  C_29 
REMARK   10  A    between atoms: C_29  and  C_30 
REMARK   11  A    between atoms: C_30  and  C_31 
REMARK   12  A    between atoms: C_31  and  O_33 
REMARK   13  A    between atoms: C_42  and  C_43 
REMARK   14  A    between atoms: C_43  and  C_44 
REMARK   15  A    between atoms: C_44  and  C_45 
REMARK   16  A    between atoms: C_45  and  O_47 
ROOT
HETATM    1  C   UNK     0     -22.279   4.794  12.105  0.00  0.00     0.051 C 
HETATM    2  C   UNK     0     -22.425   6.267  11.780  0.00  0.00    -0.031 A 
HETATM    3  C   UNK     0     -21.566   7.318  12.059  0.00  0.00     0.021 A 
HETATM    4  N   UNK     0     -22.118   8.470  11.608  0.00  0.00    -0.361 N 
HETATM    5  C   UNK     0     -23.305   8.174  11.040  0.00  0.00     0.022 A 
HETATM    6  C   UNK     0     -23.530   6.805  11.133  0.00  0.00    -0.027 A 
HETATM    7  C   UNK     0     -24.262   9.067  10.314  0.00  0.00     0.115 C 
HETATM    8  C   UNK     0     -23.657  10.070   9.347  0.00  0.00     0.021 A 
HETATM    9  N   UNK     0     -22.583   9.926   8.555  0.00  0.00    -0.361 N 
HETATM   10  C   UNK     0     -22.357  11.104   7.936  0.00  0.00     0.022 A 
HETATM   11  C   UNK     0     -23.317  12.030   8.334  0.00  0.00    -0.027 A 
HETATM   12  C   UNK     0     -24.139  11.385   9.222  0.00  0.00    -0.031 A 
HETATM   13  C   UNK     0     -25.334  12.003   9.914  0.00  0.00     0.051 C 
HETATM   14  C   UNK     0     -21.201  11.418   6.991  0.00  0.00     0.115 C 
HETATM   15  C   UNK     0     -19.828  11.276   7.629  0.00  0.00     0.021 A 
HETATM   16  N   UNK     0     -19.297  10.178   8.199  0.00  0.00    -0.361 N 
HETATM   17  C   UNK     0     -18.099  10.482   8.704  0.00  0.00     0.022 A 
HETATM   18  C   UNK     0     -17.834  11.841   8.444  0.00  0.00    -0.027 A 
HETATM   19  C   UNK     0     -18.924  12.327   7.769  0.00  0.00    -0.031 A 
HETATM   20  C   UNK     0     -19.036  13.753   7.261  0.00  0.00     0.051 C 
HETATM   21  C   UNK     0     -17.135   9.631   9.499  0.00  0.00     0.115 C 
HETATM   22  C   UNK     0     -17.723   8.599  10.433  0.00  0.00     0.022 A 
HETATM   23  N   UNK     0     -18.793   8.714  11.230  0.00  0.00    -0.361 N 
HETATM   24  C   UNK     0     -19.046   7.507  11.775  0.00  0.00     0.021 A 
HETATM   25  C   UNK     0     -18.110   6.595  11.327  0.00  0.00    -0.031 A 
HETATM   26  C   UNK     0     -17.955   5.132  11.687  0.00  0.00     0.051 C 
HETATM   27  C   UNK     0     -17.252   7.271  10.466  0.00  0.00    -0.027 A 
HETATM   28  C   UNK     0     -20.209   7.118  12.672  0.00  0.00     0.115 C 
HETATM   29  H   UNK     0     -21.682   9.489  11.730  0.00  0.00     0.165 HD
HETATM   30  H   UNK     0     -22.013   8.979   8.392  0.00  0.00     0.165 HD
HETATM   31  H   UNK     0     -19.755   9.155   8.202  0.00  0.00     0.165 HD
HETATM   32  H   UNK     0     -19.354   9.659  11.449  0.00  0.00     0.165 HD
ENDROOT
BRANCH   6  33
HETATM   33  C   UNK     0     -24.700   5.980  10.661  0.00  0.00     0.051 C 
BRANCH  33  34
HETATM   34  C   UNK     0     -25.877   6.139  11.594  0.00  0.00     0.114 C 
BRANCH  34  35
HETATM   35  C   UNK     0     -27.033   5.422  10.982  0.00  0.00     0.139 C 
HETATM   36  O   UNK     0     -26.855   4.659   9.988  0.00  0.00    -0.650 OA
BRANCH  35  37
HETATM   37  O   UNK     0     -28.331   5.548  11.459  0.00  0.00    -0.776 OA
HETATM   38  H   UNK     0     -28.919   6.327  11.209  0.00  0.00     0.167 HD
ENDBRANCH  35  37
ENDBRANCH  34  35
ENDBRANCH  33  34
ENDBRANCH   6  33
BRANCH  27  39
HETATM   39  C   UNK     0     -16.065   6.630   9.837  0.00  0.00     0.051 C 
BRANCH  39  40
HETATM   40  C   UNK     0     -14.759   6.819  10.467  0.00  0.00     0.114 C 
BRANCH  40  41
HETATM   41  C   UNK     0     -14.382   6.130  11.681  0.00  0.00     0.139 C 
HETATM   42  O   UNK     0     -14.018   6.712  12.712  0.00  0.00    -0.650 OA
BRANCH  41  43
HETATM   43  O   UNK     0     -14.427   4.707  11.711  0.00  0.00    -0.776 OA
HETATM   44  H   UNK     0     -15.305   4.322  12.038  0.00  0.00     0.167 HD
ENDBRANCH  41  43
ENDBRANCH  40  41
ENDBRANCH  39  40
ENDBRANCH  27  39
BRANCH  11  45
HETATM   45  C   UNK     0     -23.474  13.465   7.907  0.00  0.00     0.051 C 
BRANCH  45  46
HETATM   46  C   UNK     0     -24.346  13.652   6.719  0.00  0.00     0.114 C 
BRANCH  46  47
HETATM   47  C   UNK     0     -25.161  14.877   6.957  0.00  0.00     0.139 C 
HETATM   48  O   UNK     0     -25.705  15.021   8.061  0.00  0.00    -0.650 OA
BRANCH  47  49
HETATM   49  O   UNK     0     -25.307  15.825   5.976  0.00  0.00    -0.776 OA
HETATM   50  H   UNK     0     -24.519  16.134   5.395  0.00  0.00     0.167 HD
ENDBRANCH  47  49
ENDBRANCH  46  47
ENDBRANCH  45  46
ENDBRANCH  11  45
BRANCH  18  51
HETATM   51  C   UNK     0     -16.599  12.629   8.799  0.00  0.00     0.051 C 
BRANCH  51  52
HETATM   52  C   UNK     0     -15.688  12.566   7.583  0.00  0.00     0.114 C 
BRANCH  52  53
HETATM   53  C   UNK     0     -14.323  12.135   7.940  0.00  0.00     0.139 C 
HETATM   54  O   UNK     0     -13.992  12.046   9.133  0.00  0.00    -0.650 OA
BRANCH  53  55
HETATM   55  O   UNK     0     -13.423  11.835   6.946  0.00  0.00    -0.776 OA
HETATM   56  H   UNK     0     -13.462  11.050   6.340  0.00  0.00     0.167 HD
ENDBRANCH  53  55
ENDBRANCH  52  53
ENDBRANCH  51  52
ENDBRANCH  18  51
TORSDOF 16
ENDMDL
MODEL 15
REMARK VINA RESULT:      -7.9     29.949     35.686
REMARK  16 active torsions:
REMARK  status: ('A' for Active; 'I' for Inactive)
REMARK    1  A    between atoms: C_6  and  C_7 
REMARK    2  A    between atoms: C_7  and  C_8 
REMARK    3  A    between atoms: C_8  and  C_9 
REMARK    4  A    between atoms: C_9  and  O_11 
REMARK    5  A    between atoms: C_16  and  C_17 
REMARK    6  A    between atoms: C_17  and  C_18 
REMARK    7  A    between atoms: C_18  and  C_19 
REMARK    8  A    between atoms: C_19  and  O_21 
REMARK    9  A    between atoms: C_28  and  C_29 
REMARK   10  A    between atoms: C_29  and  C_30 
REMARK   11  A    between atoms: C_30  and  C_31 
REMARK   12  A    between atoms: C_31  and  O_33 
REMARK   13  A    between atoms: C_42  and  C_43 
REMARK   14  A    between atoms: C_43  and  C_44 
REMARK   15  A    between atoms: C_44  and  C_45 
REMARK   16  A    between atoms: C_45  and  O_47 
ROOT
HETATM    1  C   UNK     0     -17.207   7.867  10.860  0.00  0.00     0.051 C 
HETATM    2  C   UNK     0     -18.070   8.655   9.896  0.00  0.00    -0.031 A 
HETATM    3  C   UNK     0     -19.180   8.247   9.173  0.00  0.00     0.021 A 
HETATM    4  N   UNK     0     -19.616   9.279   8.413  0.00  0.00    -0.361 N 
HETATM    5  C   UNK     0     -18.813  10.339   8.642  0.00  0.00     0.022 A 
HETATM    6  C   UNK     0     -17.834   9.983   9.563  0.00  0.00    -0.027 A 
HETATM    7  C   UNK     0     -18.918  11.741   8.128  0.00  0.00     0.115 C 
HETATM    8  C   UNK     0     -20.306  12.358   8.107  0.00  0.00     0.021 A 
HETATM    9  N   UNK     0     -21.309  12.190   8.983  0.00  0.00    -0.361 N 
HETATM   10  C   UNK     0     -22.387  12.856   8.518  0.00  0.00     0.022 A 
HETATM   11  C   UNK     0     -22.067  13.477   7.314  0.00  0.00    -0.027 A 
HETATM   12  C   UNK     0     -20.757  13.168   7.050  0.00  0.00    -0.031 A 
HETATM   13  C   UNK     0     -19.976  13.632   5.841  0.00  0.00     0.051 C 
HETATM   14  C   UNK     0     -23.771  12.889   9.159  0.00  0.00     0.115 C 
HETATM   15  C   UNK     0     -24.430  11.523   9.272  0.00  0.00     0.021 A 
HETATM   16  N   UNK     0     -23.964  10.437   9.916  0.00  0.00    -0.361 N 
HETATM   17  C   UNK     0     -24.803   9.417   9.720  0.00  0.00     0.022 A 
HETATM   18  C   UNK     0     -25.872   9.863   8.918  0.00  0.00    -0.027 A 
HETATM   19  C   UNK     0     -25.628  11.184   8.645  0.00  0.00    -0.031 A 
HETATM   20  C   UNK     0     -26.559  12.065   7.833  0.00  0.00     0.051 C 
HETATM   21  C   UNK     0     -24.701   7.976  10.164  0.00  0.00     0.115 C 
HETATM   22  C   UNK     0     -23.322   7.363  10.232  0.00  0.00     0.022 A 
HETATM   23  N   UNK     0     -22.302   7.516   9.377  0.00  0.00    -0.361 N 
HETATM   24  C   UNK     0     -21.217   6.909   9.899  0.00  0.00     0.021 A 
HETATM   25  C   UNK     0     -21.548   6.343  11.115  0.00  0.00    -0.031 A 
HETATM   26  C   UNK     0     -20.684   5.528  12.054  0.00  0.00     0.051 C 
HETATM   27  C   UNK     0     -22.890   6.620  11.350  0.00  0.00    -0.027 A 
HETATM   28  C   UNK     0     -19.804   6.891   9.341  0.00  0.00     0.115 C 
HETATM   29  H   UNK     0     -20.464   9.240   7.690  0.00  0.00     0.165 HD
HETATM   30  H   UNK     0     -21.244  11.643   9.955  0.00  0.00     0.165 HD
HETATM   31  H   UNK     0     -23.048  10.401  10.562  0.00  0.00     0.165 HD
HETATM   32  H   UNK     0     -22.351   8.016   8.375  0.00  0.00     0.165 HD
ENDROOT
BRANCH   6  33
HETATM   33  C   UNK     0     -16.703  10.797  10.141  0.00  0.00     0.051 C 
BRANCH  33  34
HETATM   34  C   UNK     0     -15.510  10.787   9.215  0.00  0.00     0.114 C 
BRANCH  34  35
HETATM   35  C   UNK     0     -14.409  10.063   9.915  0.00  0.00     0.139 C 
HETATM   36  O   UNK     0     -13.995   8.952   9.472  0.00  0.00    -0.650 OA
BRANCH  35  37
HETATM   37  O   UNK     0     -13.794  10.559  11.058  0.00  0.00    -0.776 OA
HETATM   38  H   UNK     0     -14.135  11.377  11.536  0.00  0.00     0.167 HD
ENDBRANCH  35  37
ENDBRANCH  34  35
ENDBRANCH  33  34
ENDBRANCH   6  33
BRANCH  27  39
HETATM   39  C   UNK     0     -23.627   6.109  12.537  0.00  0.00     0.051 C 
BRANCH  39  40
HETATM   40  C   UNK     0     -24.614   5.047  12.337  0.00  0.00     0.114 C 
BRANCH  40  41
HETATM   41  C   UNK     0     -25.958   5.321  11.879  0.00  0.00     0.139 C 
HETATM   42  O   UNK     0     -26.783   5.972  12.533  0.00  0.00    -0.650 OA
BRANCH  41  43
HETATM   43  O   UNK     0     -26.371   4.821  10.612  0.00  0.00    -0.776 OA
HETATM   44  H   UNK     0     -26.310   5.493   9.856  0.00  0.00     0.167 HD
ENDBRANCH  41  43
ENDBRANCH  40  41
ENDBRANCH  39  40
ENDBRANCH  27  39
BRANCH  11  45
HETATM   45  C   UNK     0     -22.939  14.332   6.435  0.00  0.00     0.051 C 
BRANCH  45  46
HETATM   46  C   UNK     0     -23.194  15.693   6.974  0.00  0.00     0.114 C 
BRANCH  46  47
HETATM   47  C   UNK     0     -24.610  16.035   6.655  0.00  0.00     0.139 C 
HETATM   48  O   UNK     0     -25.514  15.439   7.258  0.00  0.00    -0.650 OA
BRANCH  47  49
HETATM   49  O   UNK     0     -24.907  16.989   5.714  0.00  0.00    -0.776 OA
HETATM   50  H   UNK     0     -25.875  17.245   5.485  0.00  0.00     0.167 HD
ENDBRANCH  47  49
ENDBRANCH  46  47
ENDBRANCH  45  46
ENDBRANCH  11  45
BRANCH  18  51
HETATM   51  C   UNK     0     -27.072   9.079   8.455  0.00  0.00     0.051 C 
BRANCH  51  52
HETATM   52  C   UNK     0     -28.054   9.077   9.617  0.00  0.00     0.114 C 
BRANCH  52  53
HETATM   53  C   UNK     0     -28.425   7.707  10.020  0.00  0.00     0.139 C 
HETATM   54  O   UNK     0     -28.158   6.747   9.280  0.00  0.00    -0.650 OA
BRANCH  53  55
HETATM   55  O   UNK     0     -29.070   7.501  11.216  0.00  0.00    -0.776 OA
HETATM   56  H   UNK     0     -29.740   6.793  11.404  0.00  0.00     0.167 HD
ENDBRANCH  53  55
ENDBRANCH  52  53
ENDBRANCH  51  52
ENDBRANCH  18  51
TORSDOF 16
ENDMDL
MODEL 16
REMARK VINA RESULT:      -7.8     30.259     36.868
REMARK  16 active torsions:
REMARK  status: ('A' for Active; 'I' for Inactive)
REMARK    1  A    between atoms: C_6  and  C_7 
REMARK    2  A    between atoms: C_7  and  C_8 
REMARK    3  A    between atoms: C_8  and  C_9 
REMARK    4  A    between atoms: C_9  and  O_11 
REMARK    5  A    between atoms: C_16  and  C_17 
REMARK    6  A    between atoms: C_17  and  C_18 
REMARK    7  A    between atoms: C_18  and  C_19 
REMARK    8  A    between atoms: C_19  and  O_21 
REMARK    9  A    between atoms: C_28  and  C_29 
REMARK   10  A    between atoms: C_29  and  C_30 
REMARK   11  A    between atoms: C_30  and  C_31 
REMARK   12  A    between atoms: C_31  and  O_33 
REMARK   13  A    between atoms: C_42  and  C_43 
REMARK   14  A    between atoms: C_43  and  C_44 
REMARK   15  A    between atoms: C_44  and  C_45 
REMARK   16  A    between atoms: C_45  and  O_47 
ROOT
HETATM    1  C   UNK     0     -23.827   8.231  11.113  0.00  0.00     0.051 C 
HETATM    2  C   UNK     0     -22.462   7.709  10.714  0.00  0.00    -0.031 A 
HETATM    3  C   UNK     0     -21.672   8.053   9.629  0.00  0.00     0.021 A 
HETATM    4  N   UNK     0     -20.541   7.308   9.653  0.00  0.00    -0.361 N 
HETATM    5  C   UNK     0     -20.589   6.504  10.735  0.00  0.00     0.022 A 
HETATM    6  C   UNK     0     -21.779   6.727  11.420  0.00  0.00    -0.027 A 
HETATM    7  C   UNK     0     -19.556   5.561  11.267  0.00  0.00     0.115 C 
HETATM    8  C   UNK     0     -18.120   6.053  11.268  0.00  0.00     0.021 A 
HETATM    9  N   UNK     0     -17.662   7.295  11.489  0.00  0.00    -0.361 N 
HETATM   10  C   UNK     0     -16.325   7.290  11.299  0.00  0.00     0.022 A 
HETATM   11  C   UNK     0     -15.910   6.007  10.955  0.00  0.00    -0.027 A 
HETATM   12  C   UNK     0     -17.035   5.223  10.934  0.00  0.00    -0.031 A 
HETATM   13  C   UNK     0     -17.065   3.745  10.613  0.00  0.00     0.051 C 
HETATM   14  C   UNK     0     -15.398   8.499  11.381  0.00  0.00     0.115 C 
HETATM   15  C   UNK     0     -15.724   9.594  10.378  0.00  0.00     0.021 A 
HETATM   16  N   UNK     0     -16.881  10.268  10.246  0.00  0.00    -0.361 N 
HETATM   17  C   UNK     0     -16.789  11.097   9.204  0.00  0.00     0.022 A 
HETATM   18  C   UNK     0     -15.507  10.963   8.635  0.00  0.00    -0.027 A 
HETATM   19  C   UNK     0     -14.849  10.020   9.381  0.00  0.00    -0.031 A 
HETATM   20  C   UNK     0     -13.413   9.596   9.130  0.00  0.00     0.051 C 
HETATM   21  C   UNK     0     -17.827  12.013   8.596  0.00  0.00     0.115 C 
HETATM   22  C   UNK     0     -19.266  11.556   8.627  0.00  0.00     0.022 A 
HETATM   23  N   UNK     0     -19.750  10.325   8.415  0.00  0.00    -0.361 N 
HETATM   24  C   UNK     0     -21.071  10.337   8.686  0.00  0.00     0.021 A 
HETATM   25  C   UNK     0     -21.448  11.609   9.072  0.00  0.00    -0.031 A 
HETATM   26  C   UNK     0     -22.825  12.126   9.436  0.00  0.00     0.051 C 
HETATM   27  C   UNK     0     -20.310  12.407   9.042  0.00  0.00    -0.027 A 
HETATM   28  C   UNK     0     -22.032   9.161   8.680  0.00  0.00     0.115 C 
HETATM   29  H   UNK     0     -19.734   7.328   8.884  0.00  0.00     0.165 HD
HETATM   30  H   UNK     0     -18.272   8.167  11.829  0.00  0.00     0.165 HD
HETATM   31  H   UNK     0     -17.766  10.193  10.931  0.00  0.00     0.165 HD
HETATM   32  H   UNK     0     -19.172   9.445   8.030  0.00  0.00     0.165 HD
ENDROOT
BRANCH   6  33
HETATM   33  C   UNK     0     -22.311   6.084  12.676  0.00  0.00     0.051 C 
BRANCH  33  34
HETATM   34  C   UNK     0     -22.900   4.727  12.374  0.00  0.00     0.114 C 
BRANCH  34  35
HETATM   35  C   UNK     0     -24.384   4.876  12.367  0.00  0.00     0.139 C 
HETATM   36  O   UNK     0     -25.046   4.618  11.320  0.00  0.00    -0.650 OA
BRANCH  35  37
HETATM   37  O   UNK     0     -25.100   5.293  13.483  0.00  0.00    -0.776 OA
HETATM   38  H   UNK     0     -25.222   4.703  14.290  0.00  0.00     0.167 HD
ENDBRANCH  35  37
ENDBRANCH  34  35
ENDBRANCH  33  34
ENDBRANCH   6  33
BRANCH  27  39
HETATM   39  C   UNK     0     -20.336  13.866   9.330  0.00  0.00     0.051 C 
BRANCH  39  40
HETATM   40  C   UNK     0     -20.655  14.784   8.237  0.00  0.00     0.114 C 
BRANCH  40  41
HETATM   41  C   UNK     0     -19.667  15.202   7.268  0.00  0.00     0.139 C 
HETATM   42  O   UNK     0     -19.087  16.295   7.311  0.00  0.00    -0.650 OA
BRANCH  41  43
HETATM   43  O   UNK     0     -19.330  14.322   6.201  0.00  0.00    -0.776 OA
HETATM   44  H   UNK     0     -18.335  14.214   6.045  0.00  0.00     0.167 HD
ENDBRANCH  41  43
ENDBRANCH  40  41
ENDBRANCH  39  40
ENDBRANCH  27  39
BRANCH  11  45
HETATM   45  C   UNK     0     -14.518   5.516  10.657  0.00  0.00     0.051 C 
BRANCH  45  46
HETATM   46  C   UNK     0     -14.173   5.512   9.212  0.00  0.00     0.114 C 
BRANCH  46  47
HETATM   47  C   UNK     0     -12.703   5.739   9.109  0.00  0.00     0.139 C 
HETATM   48  O   UNK     0     -11.982   5.390  10.054  0.00  0.00    -0.650 OA
BRANCH  47  49
HETATM   49  O   UNK     0     -12.159   6.323   7.993  0.00  0.00    -0.776 OA
HETATM   50  H   UNK     0     -11.301   5.969   7.556  0.00  0.00     0.167 HD
ENDBRANCH  47  49
ENDBRANCH  46  47
ENDBRANCH  45  46
ENDBRANCH  11  45
BRANCH  18  51
HETATM   51  C   UNK     0     -14.932  11.709   7.459  0.00  0.00     0.051 C 
BRANCH  51  52
HETATM   52  C   UNK     0     -13.912  12.684   8.030  0.00  0.00     0.114 C 
BRANCH  52  53
HETATM   53  C   UNK     0     -14.556  13.766   8.799  0.00  0.00     0.139 C 
HETATM   54  O   UNK     0     -15.330  14.555   8.233  0.00  0.00    -0.650 OA
BRANCH  53  55
HETATM   55  O   UNK     0     -14.292  13.897  10.140  0.00  0.00    -0.776 OA
HETATM   56  H   UNK     0     -13.566  13.439  10.640  0.00  0.00     0.167 HD
ENDBRANCH  53  55
ENDBRANCH  52  53
ENDBRANCH  51  52
ENDBRANCH  18  51
TORSDOF 16
ENDMDL
MODEL 17
REMARK VINA RESULT:      -7.5     10.990     15.472
REMARK  16 active torsions:
REMARK  status: ('A' for Active; 'I' for Inactive)
REMARK    1  A    between atoms: C_6  and  C_7 
REMARK    2  A    between atoms: C_7  and  C_8 
REMARK    3  A    between atoms: C_8  and  C_9 
REMARK    4  A    between atoms: C_9  and  O_11 
REMARK    5  A    between atoms: C_16  and  C_17 
REMARK    6  A    between atoms: C_17  and  C_18 
REMARK    7  A    between atoms: C_18  and  C_19 
REMARK    8  A    between atoms: C_19  and  O_21 
REMARK    9  A    between atoms: C_28  and  C_29 
REMARK   10  A    between atoms: C_29  and  C_30 
REMARK   11  A    between atoms: C_30  and  C_31 
REMARK   12  A    between atoms: C_31  and  O_33 
REMARK   13  A    between atoms: C_42  and  C_43 
REMARK   14  A    between atoms: C_43  and  C_44 
REMARK   15  A    between atoms: C_44  and  C_45 
REMARK   16  A    between atoms: C_45  and  O_47 
ROOT
HETATM    1  C   UNK     0     -27.724 -28.344   7.115  0.00  0.00     0.051 C 
HETATM    2  C   UNK     0     -26.778 -27.822   8.178  0.00  0.00    -0.031 A 
HETATM    3  C   UNK     0     -25.417 -27.577   8.100  0.00  0.00     0.021 A 
HETATM    4  N   UNK     0     -24.977 -27.144   9.305  0.00  0.00    -0.361 N 
HETATM    5  C   UNK     0     -26.030 -27.100  10.147  0.00  0.00     0.022 A 
HETATM    6  C   UNK     0     -27.173 -27.520   9.475  0.00  0.00    -0.027 A 
HETATM    7  C   UNK     0     -26.100 -26.607  11.559  0.00  0.00     0.115 C 
HETATM    8  C   UNK     0     -25.357 -25.319  11.868  0.00  0.00     0.021 A 
HETATM    9  N   UNK     0     -25.193 -24.240  11.088  0.00  0.00    -0.361 N 
HETATM   10  C   UNK     0     -24.386 -23.373  11.736  0.00  0.00     0.022 A 
HETATM   11  C   UNK     0     -24.029 -23.904  12.971  0.00  0.00    -0.027 A 
HETATM   12  C   UNK     0     -24.637 -25.130  13.061  0.00  0.00    -0.031 A 
HETATM   13  C   UNK     0     -24.535 -26.072  14.240  0.00  0.00     0.051 C 
HETATM   14  C   UNK     0     -23.879 -22.038  11.196  0.00  0.00     0.115 C 
HETATM   15  C   UNK     0     -23.043 -22.163   9.933  0.00  0.00     0.021 A 
HETATM   16  N   UNK     0     -23.409 -22.701   8.755  0.00  0.00    -0.361 N 
HETATM   17  C   UNK     0     -22.367 -22.683   7.921  0.00  0.00     0.022 A 
HETATM   18  C   UNK     0     -21.271 -22.096   8.585  0.00  0.00    -0.027 A 
HETATM   19  C   UNK     0     -21.708 -21.773   9.844  0.00  0.00    -0.031 A 
HETATM   20  C   UNK     0     -20.846 -21.082  10.885  0.00  0.00     0.051 C 
HETATM   21  C   UNK     0     -22.235 -23.229   6.518  0.00  0.00     0.115 C 
HETATM   22  C   UNK     0     -23.004 -24.485   6.183  0.00  0.00     0.022 A 
HETATM   23  N   UNK     0     -23.187 -25.573   6.942  0.00  0.00    -0.361 N 
HETATM   24  C   UNK     0     -24.056 -26.388   6.310  0.00  0.00     0.021 A 
HETATM   25  C   UNK     0     -24.434 -25.816   5.111  0.00  0.00    -0.031 A 
HETATM   26  C   UNK     0     -25.354 -26.365   4.041  0.00  0.00     0.051 C 
HETATM   27  C   UNK     0     -23.773 -24.597   5.007  0.00  0.00    -0.027 A 
HETATM   28  C   UNK     0     -24.642 -27.695   6.818  0.00  0.00     0.115 C 
HETATM   29  H   UNK     0     -23.918 -26.911   9.564  0.00  0.00     0.165 HD
HETATM   30  H   UNK     0     -25.686 -24.065  10.100  0.00  0.00     0.165 HD
HETATM   31  H   UNK     0     -24.438 -23.058   8.489  0.00  0.00     0.165 HD
HETATM   32  H   UNK     0     -22.671 -25.796   7.912  0.00  0.00     0.165 HD
ENDROOT
BRANCH   6  33
HETATM   33  C   UNK     0     -28.592 -27.658   9.966  0.00  0.00     0.051 C 
BRANCH  33  34
HETATM   34  C   UNK     0     -28.804 -29.003  10.619  0.00  0.00     0.114 C 
BRANCH  34  35
HETATM   35  C   UNK     0     -30.102 -29.542  10.120  0.00  0.00     0.139 C 
HETATM   36  O   UNK     0     -30.365 -29.524   8.883  0.00  0.00    -0.650 OA
BRANCH  35  37
HETATM   37  O   UNK     0     -31.065 -30.079  10.966  0.00  0.00    -0.776 OA
HETATM   38  H   UNK     0     -31.563 -30.925  10.739  0.00  0.00     0.167 HD
ENDBRANCH  35  37
ENDBRANCH  34  35
ENDBRANCH  33  34
ENDBRANCH   6  33
BRANCH  27  39
HETATM   39  C   UNK     0     -23.875 -23.720   3.809  0.00  0.00     0.051 C 
BRANCH  39  40
HETATM   40  C   UNK     0     -22.736 -23.660   2.893  0.00  0.00     0.114 C 
BRANCH  40  41
HETATM   41  C   UNK     0     -22.180 -22.407   2.435  0.00  0.00     0.139 C 
HETATM   42  O   UNK     0     -22.531 -21.846   1.388  0.00  0.00    -0.650 OA
BRANCH  41  43
HETATM   43  O   UNK     0     -21.175 -21.770   3.216  0.00  0.00    -0.776 OA
HETATM   44  H   UNK     0     -21.349 -21.782   4.214  0.00  0.00     0.167 HD
ENDBRANCH  41  43
ENDBRANCH  40  41
ENDBRANCH  39  40
ENDBRANCH  27  39
BRANCH  11  45
HETATM   45  C   UNK     0     -23.155 -23.301  14.039  0.00  0.00     0.051 C 
BRANCH  45  46
HETATM   46  C   UNK     0     -21.703 -23.546  13.844  0.00  0.00     0.114 C 
BRANCH  46  47
HETATM   47  C   UNK     0     -20.983 -22.326  14.308  0.00  0.00     0.139 C 
HETATM   48  O   UNK     0     -19.773 -22.223  14.063  0.00  0.00    -0.650 OA
BRANCH  47  49
HETATM   49  O   UNK     0     -21.644 -21.337  14.992  0.00  0.00    -0.776 OA
HETATM   50  H   UNK     0     -21.970 -21.467  15.957  0.00  0.00     0.167 HD
ENDBRANCH  47  49
ENDBRANCH  46  47
ENDBRANCH  45  46
ENDBRANCH  11  45
BRANCH  18  51
HETATM   51  C   UNK     0     -19.889 -21.837   8.043  0.00  0.00     0.051 C 
BRANCH  51  52
HETATM   52  C   UNK     0     -19.883 -20.393   7.565  0.00  0.00     0.114 C 
BRANCH  52  53
HETATM   53  C   UNK     0     -20.162 -20.291   6.119  0.00  0.00     0.139 C 
HETATM   54  O   UNK     0     -19.287 -20.597   5.294  0.00  0.00    -0.650 OA
BRANCH  53  55
HETATM   55  O   UNK     0     -21.393 -19.852   5.695  0.00  0.00    -0.776 OA
HETATM   56  H   UNK     0     -22.085 -19.419   6.259  0.00  0.00     0.167 HD
ENDBRANCH  53  55
ENDBRANCH  52  53
ENDBRANCH  51  52
ENDBRANCH  18  51
TORSDOF 16
ENDMDL
MODEL 18
REMARK VINA RESULT:      -7.5     28.571     33.498
REMARK  16 active torsions:
REMARK  status: ('A' for Active; 'I' for Inactive)
REMARK    1  A    between atoms: C_6  and  C_7 
REMARK    2  A    between atoms: C_7  and  C_8 
REMARK    3  A    between atoms: C_8  and  C_9 
REMARK    4  A    between atoms: C_9  and  O_11 
REMARK    5  A    between atoms: C_16  and  C_17 
REMARK    6  A    between atoms: C_17  and  C_18 
REMARK    7  A    between atoms: C_18  and  C_19 
REMARK    8  A    between atoms: C_19  and  O_21 
REMARK    9  A    between atoms: C_28  and  C_29 
REMARK   10  A    between atoms: C_29  and  C_30 
REMARK   11  A    between atoms: C_30  and  C_31 
REMARK   12  A    between atoms: C_31  and  O_33 
REMARK   13  A    between atoms: C_42  and  C_43 
REMARK   14  A    between atoms: C_43  and  C_44 
REMARK   15  A    between atoms: C_44  and  C_45 
REMARK   16  A    between atoms: C_45  and  O_47 
ROOT
HETATM    1  C   UNK     0     -29.668   7.334  13.216  0.00  0.00     0.051 C 
HETATM    2  C   UNK     0     -28.282   6.878  12.806  0.00  0.00    -0.031 A 
HETATM    3  C   UNK     0     -27.681   6.905  11.557  0.00  0.00     0.021 A 
HETATM    4  N   UNK     0     -26.443   6.365  11.652  0.00  0.00    -0.361 N 
HETATM    5  C   UNK     0     -26.238   6.003  12.935  0.00  0.00     0.022 A 
HETATM    6  C   UNK     0     -27.370   6.307  13.684  0.00  0.00    -0.027 A 
HETATM    7  C   UNK     0     -25.008   5.450  13.584  0.00  0.00     0.115 C 
HETATM    8  C   UNK     0     -23.686   6.085  13.191  0.00  0.00     0.021 A 
HETATM    9  N   UNK     0     -23.428   7.370  12.903  0.00  0.00    -0.361 N 
HETATM   10  C   UNK     0     -22.138   7.463  12.516  0.00  0.00     0.022 A 
HETATM   11  C   UNK     0     -21.546   6.204  12.565  0.00  0.00    -0.027 A 
HETATM   12  C   UNK     0     -22.515   5.332  12.990  0.00  0.00    -0.031 A 
HETATM   13  C   UNK     0     -22.324   3.846  13.197  0.00  0.00     0.051 C 
HETATM   14  C   UNK     0     -21.430   8.726  12.035  0.00  0.00     0.115 C 
HETATM   15  C   UNK     0     -22.043   9.339  10.786  0.00  0.00     0.021 A 
HETATM   16  N   UNK     0     -23.307   9.771  10.619  0.00  0.00    -0.361 N 
HETATM   17  C   UNK     0     -23.468  10.175   9.357  0.00  0.00     0.022 A 
HETATM   18  C   UNK     0     -22.248  10.007   8.672  0.00  0.00    -0.027 A 
HETATM   19  C   UNK     0     -21.364   9.483   9.578  0.00  0.00    -0.031 A 
HETATM   20  C   UNK     0     -19.911   9.180   9.261  0.00  0.00     0.051 C 
HETATM   21  C   UNK     0     -24.706  10.675   8.648  0.00  0.00     0.115 C 
HETATM   22  C   UNK     0     -26.034  10.084   9.060  0.00  0.00     0.022 A 
HETATM   23  N   UNK     0     -26.318   8.809   9.357  0.00  0.00    -0.361 N 
HETATM   24  C   UNK     0     -27.585   8.753   9.814  0.00  0.00     0.021 A 
HETATM   25  C   UNK     0     -28.134  10.021   9.802  0.00  0.00    -0.031 A 
HETATM   26  C   UNK     0     -29.533  10.459  10.182  0.00  0.00     0.051 C 
HETATM   27  C   UNK     0     -27.160  10.890   9.323  0.00  0.00    -0.027 A 
HETATM   28  C   UNK     0     -28.324   7.543  10.359  0.00  0.00     0.115 C 
HETATM   29  H   UNK     0     -25.737   6.207  10.804  0.00  0.00     0.165 HD
HETATM   30  H   UNK     0     -24.141   8.223  13.019  0.00  0.00     0.165 HD
HETATM   31  H   UNK     0     -24.088   9.837  11.420  0.00  0.00     0.165 HD
HETATM   32  H   UNK     0     -25.640   7.929   9.206  0.00  0.00     0.165 HD
ENDROOT
BRANCH   6  33
HETATM   33  C   UNK     0     -27.649   6.097  15.151  0.00  0.00     0.051 C 
BRANCH  33  34
HETATM   34  C   UNK     0     -28.606   4.947  15.354  0.00  0.00     0.114 C 
BRANCH  34  35
HETATM   35  C   UNK     0     -28.270   4.312  16.661  0.00  0.00     0.139 C 
HETATM   36  O   UNK     0     -27.570   4.936  17.511  0.00  0.00    -0.650 OA
BRANCH  35  37
HETATM   37  O   UNK     0     -28.699   3.036  17.007  0.00  0.00    -0.776 OA
HETATM   38  H   UNK     0     -29.100   2.833  17.909  0.00  0.00     0.167 HD
ENDBRANCH  35  37
ENDBRANCH  34  35
ENDBRANCH  33  34
ENDBRANCH   6  33
BRANCH  27  39
HETATM   39  C   UNK     0     -27.406  12.341   9.100  0.00  0.00     0.051 C 
BRANCH  39  40
HETATM   40  C   UNK     0     -26.985  13.284  10.135  0.00  0.00     0.114 C 
BRANCH  40  41
HETATM   41  C   UNK     0     -25.605  13.406  10.551  0.00  0.00     0.139 C 
HETATM   42  O   UNK     0     -25.154  12.890  11.582  0.00  0.00    -0.650 OA
BRANCH  41  43
HETATM   43  O   UNK     0     -24.704  14.157   9.743  0.00  0.00    -0.776 OA
HETATM   44  H   UNK     0     -25.144  14.662   8.983  0.00  0.00     0.167 HD
ENDBRANCH  41  43
ENDBRANCH  40  41
ENDBRANCH  39  40
ENDBRANCH  27  39
BRANCH  11  45
HETATM   45  C   UNK     0     -20.130   5.816  12.234  0.00  0.00     0.051 C 
BRANCH  45  46
HETATM   46  C   UNK     0     -19.919   5.448  10.811  0.00  0.00     0.114 C 
BRANCH  46  47
HETATM   47  C   UNK     0     -18.474   5.116  10.650  0.00  0.00     0.139 C 
HETATM   48  O   UNK     0     -17.661   6.045  10.551  0.00  0.00    -0.650 OA
BRANCH  47  49
HETATM   49  O   UNK     0     -18.053   3.811  10.610  0.00  0.00    -0.776 OA
HETATM   50  H   UNK     0     -18.712   3.024  10.660  0.00  0.00     0.167 HD
ENDBRANCH  47  49
ENDBRANCH  46  47
ENDBRANCH  45  46
ENDBRANCH  11  45
BRANCH  18  51
HETATM   51  C   UNK     0     -21.938  10.346   7.237  0.00  0.00     0.051 C 
BRANCH  51  52
HETATM   52  C   UNK     0     -21.179  11.665   7.266  0.00  0.00     0.114 C 
BRANCH  52  53
HETATM   53  C   UNK     0     -22.081  12.813   7.479  0.00  0.00     0.139 C 
HETATM   54  O   UNK     0     -22.052  13.435   8.553  0.00  0.00    -0.650 OA
BRANCH  53  55
HETATM   55  O   UNK     0     -22.953  13.186   6.486  0.00  0.00    -0.776 OA
HETATM   56  H   UNK     0     -22.717  13.366   5.538  0.00  0.00     0.167 HD
ENDBRANCH  53  55
ENDBRANCH  52  53
ENDBRANCH  51  52
ENDBRANCH  18  51
TORSDOF 16
ENDMDL
MODEL 19
REMARK VINA RESULT:      -7.5     30.439     34.846
REMARK  16 active torsions:
REMARK  status: ('A' for Active; 'I' for Inactive)
REMARK    1  A    between atoms: C_6  and  C_7 
REMARK    2  A    between atoms: C_7  and  C_8 
REMARK    3  A    between atoms: C_8  and  C_9 
REMARK    4  A    between atoms: C_9  and  O_11 
REMARK    5  A    between atoms: C_16  and  C_17 
REMARK    6  A    between atoms: C_17  and  C_18 
REMARK    7  A    between atoms: C_18  and  C_19 
REMARK    8  A    between atoms: C_19  and  O_21 
REMARK    9  A    between atoms: C_28  and  C_29 
REMARK   10  A    between atoms: C_29  and  C_30 
REMARK   11  A    between atoms: C_30  and  C_31 
REMARK   12  A    between atoms: C_31  and  O_33 
REMARK   13  A    between atoms: C_42  and  C_43 
REMARK   14  A    between atoms: C_43  and  C_44 
REMARK   15  A    between atoms: C_44  and  C_45 
REMARK   16  A    between atoms: C_45  and  O_47 
ROOT
HETATM    1  C   UNK     0     -27.576   6.482  12.194  0.00  0.00     0.051 C 
HETATM    2  C   UNK     0     -26.187   6.467  11.589  0.00  0.00    -0.031 A 
HETATM    3  C   UNK     0     -25.767   6.895  10.340  0.00  0.00     0.021 A 
HETATM    4  N   UNK     0     -24.439   6.661  10.216  0.00  0.00    -0.361 N 
HETATM    5  C   UNK     0     -24.001   6.101  11.363  0.00  0.00     0.022 A 
HETATM    6  C   UNK     0     -25.070   5.963  12.243  0.00  0.00    -0.027 A 
HETATM    7  C   UNK     0     -22.609   5.738  11.774  0.00  0.00     0.115 C 
HETATM    8  C   UNK     0     -21.517   6.739  11.441  0.00  0.00     0.021 A 
HETATM    9  N   UNK     0     -21.583   8.079  11.439  0.00  0.00    -0.361 N 
HETATM   10  C   UNK     0     -20.403   8.557  10.990  0.00  0.00     0.022 A 
HETATM   11  C   UNK     0     -19.550   7.495  10.704  0.00  0.00    -0.027 A 
HETATM   12  C   UNK     0     -20.245   6.347  10.986  0.00  0.00    -0.031 A 
HETATM   13  C   UNK     0     -19.710   4.941  10.831  0.00  0.00     0.051 C 
HETATM   14  C   UNK     0     -20.052  10.024  10.763  0.00  0.00     0.115 C 
HETATM   15  C   UNK     0     -20.935  10.717   9.737  0.00  0.00     0.021 A 
HETATM   16  N   UNK     0     -22.274  10.858   9.767  0.00  0.00    -0.361 N 
HETATM   17  C   UNK     0     -22.676  11.464   8.648  0.00  0.00     0.022 A 
HETATM   18  C   UNK     0     -21.545  11.739   7.854  0.00  0.00    -0.027 A 
HETATM   19  C   UNK     0     -20.461  11.267   8.548  0.00  0.00    -0.031 A 
HETATM   20  C   UNK     0     -19.028  11.394   8.063  0.00  0.00     0.051 C 
HETATM   21  C   UNK     0     -24.072  11.788   8.166  0.00  0.00     0.115 C 
HETATM   22  C   UNK     0     -25.177  10.823   8.529  0.00  0.00     0.022 A 
HETATM   23  N   UNK     0     -25.137   9.484   8.544  0.00  0.00    -0.361 N 
HETATM   24  C   UNK     0     -26.295   9.033   9.068  0.00  0.00     0.021 A 
HETATM   25  C   UNK     0     -27.103  10.106   9.388  0.00  0.00    -0.031 A 
HETATM   26  C   UNK     0     -28.505  10.106   9.961  0.00  0.00     0.051 C 
HETATM   27  C   UNK     0     -26.409  11.263   9.052  0.00  0.00    -0.027 A 
HETATM   28  C   UNK     0     -26.679   7.595   9.372  0.00  0.00     0.115 C 
HETATM   29  H   UNK     0     -23.827   6.857   9.305  0.00  0.00     0.165 HD
HETATM   30  H   UNK     0     -22.444   8.693  11.801  0.00  0.00     0.165 HD
HETATM   31  H   UNK     0     -22.945  10.568  10.617  0.00  0.00     0.165 HD
HETATM   32  H   UNK     0     -24.309   8.844   8.144  0.00  0.00     0.165 HD
ENDROOT
BRANCH   6  33
HETATM   33  C   UNK     0     -25.110   5.393  13.638  0.00  0.00     0.051 C 
BRANCH  33  34
HETATM   34  C   UNK     0     -24.823   6.465  14.663  0.00  0.00     0.114 C 
BRANCH  34  35
HETATM   35  C   UNK     0     -23.855   5.897  15.644  0.00  0.00     0.139 C 
HETATM   36  O   UNK     0     -22.660   5.665  15.299  0.00  0.00    -0.650 OA
BRANCH  35  37
HETATM   37  O   UNK     0     -24.204   5.604  16.957  0.00  0.00    -0.776 OA
HETATM   38  H   UNK     0     -25.160   5.451  17.234  0.00  0.00     0.167 HD
ENDBRANCH  35  37
ENDBRANCH  34  35
ENDBRANCH  33  34
ENDBRANCH   6  33
BRANCH  27  39
HETATM   39  C   UNK     0     -26.992  12.626   9.188  0.00  0.00     0.051 C 
BRANCH  39  40
HETATM   40  C   UNK     0     -26.485  13.495  10.250  0.00  0.00     0.114 C 
BRANCH  40  41
HETATM   41  C   UNK     0     -25.999  12.972  11.507  0.00  0.00     0.139 C 
HETATM   42  O   UNK     0     -26.741  12.544  12.402  0.00  0.00    -0.650 OA
BRANCH  41  43
HETATM   43  O   UNK     0     -24.596  12.940  11.746  0.00  0.00    -0.776 OA
HETATM   44  H   UNK     0     -24.060  12.462  11.032  0.00  0.00     0.167 HD
ENDBRANCH  41  43
ENDBRANCH  40  41
ENDBRANCH  39  40
ENDBRANCH  27  39
BRANCH  11  45
HETATM   45  C   UNK     0     -18.136   7.535  10.189  0.00  0.00     0.051 C 
BRANCH  45  46
HETATM   46  C   UNK     0     -17.105   7.618  11.255  0.00  0.00     0.114 C 
BRANCH  46  47
HETATM   47  C   UNK     0     -16.465   6.275  11.356  0.00  0.00     0.139 C 
HETATM   48  O   UNK     0     -16.419   5.722  12.464  0.00  0.00    -0.650 OA
BRANCH  47  49
HETATM   49  O   UNK     0     -15.938   5.662  10.247  0.00  0.00    -0.776 OA
HETATM   50  H   UNK     0     -16.532   5.279   9.502  0.00  0.00     0.167 HD
ENDBRANCH  47  49
ENDBRANCH  46  47
ENDBRANCH  45  46
ENDBRANCH  11  45
BRANCH  18  51
HETATM   51  C   UNK     0     -21.498  12.432   6.518  0.00  0.00     0.051 C 
BRANCH  51  52
HETATM   52  C   UNK     0     -21.547  13.925   6.810  0.00  0.00     0.114 C 
BRANCH  52  53
HETATM   53  C   UNK     0     -20.204  14.536   6.776  0.00  0.00     0.139 C 
HETATM   54  O   UNK     0     -19.852  15.313   7.678  0.00  0.00    -0.650 OA
BRANCH  53  55
HETATM   55  O   UNK     0     -19.350  14.243   5.741  0.00  0.00    -0.776 OA
HETATM   56  H   UNK     0     -19.553  13.660   4.963  0.00  0.00     0.167 HD
ENDBRANCH  53  55
ENDBRANCH  52  53
ENDBRANCH  51  52
ENDBRANCH  18  51
TORSDOF 16
ENDMDL
MODEL 20
REMARK VINA RESULT:      -7.5     29.749     34.537
REMARK  16 active torsions:
REMARK  status: ('A' for Active; 'I' for Inactive)
REMARK    1  A    between atoms: C_6  and  C_7 
REMARK    2  A    between atoms: C_7  and  C_8 
REMARK    3  A    between atoms: C_8  and  C_9 
REMARK    4  A    between atoms: C_9  and  O_11 
REMARK    5  A    between atoms: C_16  and  C_17 
REMARK    6  A    between atoms: C_17  and  C_18 
REMARK    7  A    between atoms: C_18  and  C_19 
REMARK    8  A    between atoms: C_19  and  O_21 
REMARK    9  A    between atoms: C_28  and  C_29 
REMARK   10  A    between atoms: C_29  and  C_30 
REMARK   11  A    between atoms: C_30  and  C_31 
REMARK   12  A    between atoms: C_31  and  O_33 
REMARK   13  A    between atoms: C_42  and  C_43 
REMARK   14  A    between atoms: C_43  and  C_44 
REMARK   15  A    between atoms: C_44  and  C_45 
REMARK   16  A    between atoms: C_45  and  O_47 
ROOT
HETATM    1  C   UNK     0     -26.298  12.809   7.882  0.00  0.00     0.051 C 
HETATM    2  C   UNK     0     -24.974  12.442   8.520  0.00  0.00    -0.031 A 
HETATM    3  C   UNK     0     -24.725  11.753   9.697  0.00  0.00     0.021 A 
HETATM    4  N   UNK     0     -23.387  11.683   9.893  0.00  0.00    -0.361 N 
HETATM    5  C   UNK     0     -22.777  12.304   8.863  0.00  0.00     0.022 A 
HETATM    6  C   UNK     0     -23.740  12.793   7.987  0.00  0.00    -0.027 A 
HETATM    7  C   UNK     0     -21.318  12.426   8.554  0.00  0.00     0.115 C 
HETATM    8  C   UNK     0     -20.473  11.180   8.754  0.00  0.00     0.021 A 
HETATM    9  N   UNK     0     -20.809   9.898   8.541  0.00  0.00    -0.361 N 
HETATM   10  C   UNK     0     -19.779   9.123   8.942  0.00  0.00     0.022 A 
HETATM   11  C   UNK     0     -18.748   9.927   9.417  0.00  0.00    -0.027 A 
HETATM   12  C   UNK     0     -19.178  11.224   9.301  0.00  0.00    -0.031 A 
HETATM   13  C   UNK     0     -18.380  12.448   9.693  0.00  0.00     0.051 C 
HETATM   14  C   UNK     0     -19.747   7.597   8.943  0.00  0.00     0.115 C 
HETATM   15  C   UNK     0     -20.812   6.959   9.820  0.00  0.00     0.021 A 
HETATM   16  N   UNK     0     -22.147   7.107   9.730  0.00  0.00    -0.361 N 
HETATM   17  C   UNK     0     -22.731   6.438  10.727  0.00  0.00     0.022 A 
HETATM   18  C   UNK     0     -21.728   5.817  11.498  0.00  0.00    -0.027 A 
HETATM   19  C   UNK     0     -20.531   6.150  10.919  0.00  0.00    -0.031 A 
HETATM   20  C   UNK     0     -19.186   5.655  11.418  0.00  0.00     0.051 C 
HETATM   21  C   UNK     0     -24.190   6.345  11.112  0.00  0.00     0.115 C 
HETATM   22  C   UNK     0     -25.052   7.563  10.877  0.00  0.00     0.022 A 
HETATM   23  N   UNK     0     -24.742   8.850  11.076  0.00  0.00    -0.361 N 
HETATM   24  C   UNK     0     -25.750   9.608  10.598  0.00  0.00     0.021 A 
HETATM   25  C   UNK     0     -26.738   8.787  10.088  0.00  0.00    -0.031 A 
HETATM   26  C   UNK     0     -28.074   9.166   9.483  0.00  0.00     0.051 C 
HETATM   27  C   UNK     0     -26.315   7.474  10.255  0.00  0.00    -0.027 A 
HETATM   28  C   UNK     0     -25.816  11.123  10.515  0.00  0.00     0.115 C 
HETATM   29  H   UNK     0     -22.884  11.229  10.779  0.00  0.00     0.165 HD
HETATM   30  H   UNK     0     -21.753   9.540   8.062  0.00  0.00     0.165 HD
HETATM   31  H   UNK     0     -22.693   7.655   8.918  0.00  0.00     0.165 HD
HETATM   32  H   UNK     0     -23.827   9.236  11.595  0.00  0.00     0.165 HD
ENDROOT
BRANCH   6  33
HETATM   33  C   UNK     0     -23.580  13.561   6.699  0.00  0.00     0.051 C 
BRANCH  33  34
HETATM   34  C   UNK     0     -23.890  15.025   6.907  0.00  0.00     0.114 C 
BRANCH  34  35
HETATM   35  C   UNK     0     -22.629  15.690   7.344  0.00  0.00     0.139 C 
HETATM   36  O   UNK     0     -21.802  16.116   6.486  0.00  0.00    -0.650 OA
BRANCH  35  37
HETATM   37  O   UNK     0     -22.305  15.875   8.682  0.00  0.00    -0.776 OA
HETATM   38  H   UNK     0     -21.558  15.366   9.127  0.00  0.00     0.167 HD
ENDBRANCH  35  37
ENDBRANCH  34  35
ENDBRANCH  33  34
ENDBRANCH   6  33
BRANCH  27  39
HETATM   39  C   UNK     0     -27.151   6.299   9.888  0.00  0.00     0.051 C 
BRANCH  39  40
HETATM   40  C   UNK     0     -27.775   5.528  10.964  0.00  0.00     0.114 C 
BRANCH  40  41
HETATM   41  C   UNK     0     -27.942   6.061  12.297  0.00  0.00     0.139 C 
HETATM   42  O   UNK     0     -27.115   5.901  13.205  0.00  0.00    -0.650 OA
BRANCH  41  43
HETATM   43  O   UNK     0     -29.113   6.812  12.600  0.00  0.00    -0.776 OA
HETATM   44  H   UNK     0     -29.280   7.596  11.980  0.00  0.00     0.167 HD
ENDBRANCH  41  43
ENDBRANCH  40  41
ENDBRANCH  39  40
ENDBRANCH  27  39
BRANCH  11  45
HETATM   45  C   UNK     0     -17.405   9.515   9.958  0.00  0.00     0.051 C 
BRANCH  45  46
HETATM   46  C   UNK     0     -16.418   9.143   8.912  0.00  0.00     0.114 C 
BRANCH  46  47
HETATM   47  C   UNK     0     -15.208   9.988   9.127  0.00  0.00     0.139 C 
HETATM   48  O   UNK     0     -15.240  10.854  10.011  0.00  0.00    -0.650 OA
BRANCH  47  49
HETATM   49  O   UNK     0     -14.083   9.811   8.361  0.00  0.00    -0.776 OA
HETATM   50  H   UNK     0     -13.711   8.878   8.145  0.00  0.00     0.167 HD
ENDBRANCH  47  49
ENDBRANCH  46  47
ENDBRANCH  45  46
ENDBRANCH  11  45
BRANCH  18  51
HETATM   51  C   UNK     0     -21.903   4.937  12.708  0.00  0.00     0.051 C 
BRANCH  51  52
HETATM   52  C   UNK     0     -21.733   5.840  13.921  0.00  0.00     0.114 C 
BRANCH  52  53
HETATM   53  C   UNK     0     -22.875   5.734  14.850  0.00  0.00     0.139 C 
HETATM   54  O   UNK     0     -22.677   5.686  16.074  0.00  0.00    -0.650 OA
BRANCH  53  55
HETATM   55  O   UNK     0     -24.154   5.686  14.351  0.00  0.00    -0.776 OA
HETATM   56  H   UNK     0     -24.679   4.864  14.168  0.00  0.00     0.167 HD
ENDBRANCH  53  55
ENDBRANCH  52  53
ENDBRANCH  51  52
ENDBRANCH  18  51
TORSDOF 16
ENDMDL
