MODEL 1
REMARK VINA RESULT:      -9.1      0.000      0.000
REMARK  28 active torsions:
REMARK  status: ('A' for Active; 'I' for Inactive)
REMARK    1  A    between atoms: C_2  and  O_3 
REMARK    2  A    between atoms: C_2  and  C_4 
REMARK    3  A    between atoms: C_4  and  C_5 
REMARK    4  A    between atoms: C_5  and  C_6 
REMARK    5  A    between atoms: C_7  and  C_8 
REMARK    6  A    between atoms: C_8  and  C_9 
REMARK    7  A    between atoms: C_9  and  O_11 
REMARK    8  A    between atoms: C_28  and  C_29 
REMARK    9  A    between atoms: C_29  and  C_30 
REMARK   10  A    between atoms: C_30  and  O_32 
REMARK   11  A    between atoms: C_33  and  C_34 
REMARK   12  A    between atoms: C_34  and  C_35 
REMARK   13  A    between atoms: C_35  and  C_36 
REMARK   14  A    between atoms: C_36  and  O_38 
REMARK   15  A    between atoms: C_39  and  C_40 
REMARK   16  A    between atoms: C_40  and  C_41 
REMARK   17  A    between atoms: C_41  and  C_42 
REMARK   18  A    between atoms: C_42  and  O_44 
REMARK   19  A    between atoms: C_45  and  C_46 
REMARK   20  A    between atoms: C_46  and  C_47 
REMARK   21  A    between atoms: C_47  and  O_49 
REMARK   22  A    between atoms: C_50  and  C_51 
REMARK   23  A    between atoms: C_51  and  C_52 
REMARK   24  A    between atoms: C_52  and  O_54 
REMARK   25  A    between atoms: C_55  and  C_56 
REMARK   26  A    between atoms: C_56  and  C_57 
REMARK   27  A    between atoms: C_57  and  C_58 
REMARK   28  A    between atoms: C_58  and  O_60 
ROOT
ATOM      1  O   UNK d   0      17.760   1.287   8.373  0.00  0.00    -0.650 OA
ATOM      2  C   UNK d   0      17.674   0.046   8.506  0.00  0.00     0.139 C 
ENDROOT
BRANCH   2   3
ATOM      3  O   UNK d   0      18.813  -0.688   8.734  0.00  0.00    -0.776 OA
ATOM      4  H   UNK d   0      18.766  -1.618   9.156  0.00  0.00     0.167 HD
ENDBRANCH   2   3
BRANCH   2   5
ATOM      5  C   UNK d   0      16.346  -0.626   8.417  0.00  0.00     0.115 C 
BRANCH   5   6
ATOM      6  C   UNK d   0      16.521  -2.121   8.422  0.00  0.00     0.052 C 
BRANCH   6   7
ATOM      7  C   UNK d   0      15.210  -2.858   8.555  0.00  0.00    -0.020 A 
ATOM      8  C   UNK d   0      14.523  -3.442   7.606  0.00  0.00    -0.011 A 
ATOM      9  C   UNK d   0      13.329  -4.011   8.208  0.00  0.00     0.067 A 
ATOM     10  C   UNK d   0      12.227  -4.758   7.761  0.00  0.00     0.062 C 
ATOM     11  N   UNK d   0      13.366  -3.721   9.525  0.00  0.00    -0.248 NA
ATOM     12  C   UNK d   0      11.306  -5.460   8.545  0.00  0.00     0.041 A 
ATOM     13  N   UNK d   0      10.686  -5.129   9.694  0.00  0.00    -0.355 N 
ATOM     14  C   UNK d   0      10.949  -6.768   8.170  0.00  0.00    -0.022 A 
ATOM     15  C   UNK d   0       9.951  -6.197  10.061  0.00  0.00     0.042 A 
ATOM     16  H   UNK d   0      10.750  -4.154  10.225  0.00  0.00     0.166 HD
ATOM     17  C   UNK d   0       9.112  -6.388  11.177  0.00  0.00     0.062 C 
ATOM     18  C   UNK d   0      10.092  -7.244   9.130  0.00  0.00    -0.013 A 
ATOM     19  C   UNK d   0       9.340  -6.070  12.491  0.00  0.00     0.067 A 
ATOM     20  N   UNK d   0      10.400  -5.301  12.753  0.00  0.00    -0.248 NA
ATOM     21  C   UNK d   0       8.707  -6.373  13.764  0.00  0.00    -0.011 A 
ATOM     22  C   UNK d   0      10.507  -5.081  14.104  0.00  0.00     0.066 A 
ATOM     23  C   UNK d   0      11.549  -4.263  14.514  0.00  0.00     0.062 C 
ATOM     24  C   UNK d   0       9.397  -5.795  14.704  0.00  0.00    -0.020 A 
ATOM     25  C   UNK d   0      12.457  -3.556  13.710  0.00  0.00     0.041 A 
ATOM     26  N   UNK d   0      13.084  -3.890  12.576  0.00  0.00    -0.355 N 
ATOM     27  C   UNK d   0      12.810  -2.242  14.085  0.00  0.00    -0.022 A 
ATOM     28  C   UNK d   0      13.824  -2.831  12.213  0.00  0.00     0.042 A 
ATOM     29  H   UNK d   0      13.027  -4.875  12.050  0.00  0.00     0.166 HD
ATOM     30  C   UNK d   0      14.670  -2.630  11.111  0.00  0.00     0.062 C 
ATOM     31  C   UNK d   0      13.674  -1.775  13.143  0.00  0.00    -0.013 A 
ATOM     32  C   UNK d   0      14.474  -3.029   9.798  0.00  0.00     0.066 A 
BRANCH   8  33
ATOM     33  C   UNK d   0      14.876  -3.517   6.177  0.00  0.00     0.151 C 
BRANCH  33  34
ATOM     34  C   UNK d   0      14.047  -2.632   5.338  0.00  0.00     0.143 C 
ATOM     35  O   UNK d   0      13.097  -3.083   4.682  0.00  0.00    -0.650 OA
BRANCH  34  36
ATOM     36  O   UNK d   0      14.337  -1.288   5.283  0.00  0.00    -0.776 OA
ATOM     37  H   UNK d   0      13.610  -0.578   5.445  0.00  0.00     0.167 HD
ENDBRANCH  34  36
ENDBRANCH  33  34
ENDBRANCH   8  33
BRANCH  31  38
ATOM     38  C   UNK d   0      14.311  -0.405  13.118  0.00  0.00     0.151 C 
BRANCH  38  39
ATOM     39  C   UNK d   0      13.746   0.459  12.104  0.00  0.00     0.143 C 
ATOM     40  O   UNK d   0      14.453   1.128  11.330  0.00  0.00    -0.650 OA
BRANCH  39  41
ATOM     41  O   UNK d   0      12.360   0.552  11.977  0.00  0.00    -0.776 OA
ATOM     42  H   UNK d   0      12.004   1.206  11.273  0.00  0.00     0.167 HD
ENDBRANCH  39  41
ENDBRANCH  38  39
ENDBRANCH  31  38
BRANCH  27  43
ATOM     43  C   UNK d   0      12.367  -1.434  15.280  0.00  0.00     0.052 C 
BRANCH  43  44
ATOM     44  C   UNK d   0      11.063  -0.735  15.070  0.00  0.00     0.115 C 
BRANCH  44  45
ATOM     45  C   UNK d   0      11.258   0.669  15.516  0.00  0.00     0.139 C 
ATOM     46  O   UNK d   0      10.765   1.014  16.618  0.00  0.00    -0.650 OA
BRANCH  45  47
ATOM     47  O   UNK d   0      11.958   1.597  14.776  0.00  0.00    -0.776 OA
ATOM     48  H   UNK d   0      11.681   2.590  14.716  0.00  0.00     0.167 HD
ENDBRANCH  45  47
ENDBRANCH  44  45
ENDBRANCH  43  44
ENDBRANCH  27  43
BRANCH  24  49
ATOM     49  C   UNK d   0       9.087  -5.810  16.144  0.00  0.00     0.052 C 
BRANCH  49  50
ATOM     50  C   UNK d   0      10.121  -6.609  16.895  0.00  0.00     0.115 C 
BRANCH  50  51
ATOM     51  C   UNK d   0      10.210  -8.031  16.594  0.00  0.00     0.139 C 
ATOM     52  O   UNK d   0       9.411  -8.874  17.067  0.00  0.00    -0.650 OA
BRANCH  51  53
ATOM     53  O   UNK d   0      11.213  -8.494  15.756  0.00  0.00    -0.776 OA
ATOM     54  H   UNK d   0      11.077  -9.377  15.295  0.00  0.00     0.167 HD
ENDBRANCH  51  53
ENDBRANCH  50  51
ENDBRANCH  49  50
ENDBRANCH  24  49
BRANCH  21  55
ATOM     55  C   UNK d   0       7.476  -7.206  13.907  0.00  0.00     0.151 C 
BRANCH  55  56
ATOM     56  C   UNK d   0       7.690  -8.589  13.455  0.00  0.00     0.143 C 
ATOM     57  O   UNK d   0       6.934  -9.158  12.644  0.00  0.00    -0.650 OA
BRANCH  56  58
ATOM     58  O   UNK d   0       8.789  -9.276  13.966  0.00  0.00    -0.776 OA
ATOM     59  H   UNK d   0       9.508  -8.679  14.414  0.00  0.00     0.167 HD
ENDBRANCH  56  58
ENDBRANCH  55  56
ENDBRANCH  21  55
BRANCH  18  60
ATOM     60  C   UNK d   0       9.468  -8.618   9.127  0.00  0.00     0.151 C 
BRANCH  60  61
ATOM     61  C   UNK d   0       8.101  -8.440   8.613  0.00  0.00     0.143 C 
ATOM     62  O   UNK d   0       7.769  -8.224   7.447  0.00  0.00    -0.650 OA
BRANCH  61  63
ATOM     63  O   UNK d   0       7.075  -8.531   9.584  0.00  0.00    -0.776 OA
ATOM     64  H   UNK d   0       6.302  -9.161   9.464  0.00  0.00     0.167 HD
ENDBRANCH  61  63
ENDBRANCH  60  61
ENDBRANCH  18  60
BRANCH  14  65
ATOM     65  C   UNK d   0      11.277  -7.558   6.934  0.00  0.00     0.052 C 
BRANCH  65  66
ATOM     66  C   UNK d   0      10.437  -7.184   5.765  0.00  0.00     0.115 C 
BRANCH  66  67
ATOM     67  C   UNK d   0      11.063  -6.799   4.532  0.00  0.00     0.139 C 
ATOM     68  O   UNK d   0      11.056  -7.633   3.553  0.00  0.00    -0.650 OA
BRANCH  67  69
ATOM     69  O   UNK d   0      11.705  -5.596   4.241  0.00  0.00    -0.776 OA
ATOM     70  H   UNK d   0      12.547  -5.391   4.798  0.00  0.00     0.167 HD
ENDBRANCH  67  69
ENDBRANCH  66  67
ENDBRANCH  65  66
ENDBRANCH  14  65
ENDBRANCH   6   7
ENDBRANCH   5   6
ENDBRANCH   2   5
TORSDOF 28
ENDMDL
MODEL 2
REMARK VINA RESULT:      -8.9      2.080      9.986
REMARK  28 active torsions:
REMARK  status: ('A' for Active; 'I' for Inactive)
REMARK    1  A    between atoms: C_2  and  O_3 
REMARK    2  A    between atoms: C_2  and  C_4 
REMARK    3  A    between atoms: C_4  and  C_5 
REMARK    4  A    between atoms: C_5  and  C_6 
REMARK    5  A    between atoms: C_7  and  C_8 
REMARK    6  A    between atoms: C_8  and  C_9 
REMARK    7  A    between atoms: C_9  and  O_11 
REMARK    8  A    between atoms: C_28  and  C_29 
REMARK    9  A    between atoms: C_29  and  C_30 
REMARK   10  A    between atoms: C_30  and  O_32 
REMARK   11  A    between atoms: C_33  and  C_34 
REMARK   12  A    between atoms: C_34  and  C_35 
REMARK   13  A    between atoms: C_35  and  C_36 
REMARK   14  A    between atoms: C_36  and  O_38 
REMARK   15  A    between atoms: C_39  and  C_40 
REMARK   16  A    between atoms: C_40  and  C_41 
REMARK   17  A    between atoms: C_41  and  C_42 
REMARK   18  A    between atoms: C_42  and  O_44 
REMARK   19  A    between atoms: C_45  and  C_46 
REMARK   20  A    between atoms: C_46  and  C_47 
REMARK   21  A    between atoms: C_47  and  O_49 
REMARK   22  A    between atoms: C_50  and  C_51 
REMARK   23  A    between atoms: C_51  and  C_52 
REMARK   24  A    between atoms: C_52  and  O_54 
REMARK   25  A    between atoms: C_55  and  C_56 
REMARK   26  A    between atoms: C_56  and  C_57 
REMARK   27  A    between atoms: C_57  and  C_58 
REMARK   28  A    between atoms: C_58  and  O_60 
ROOT
ATOM      1  O   UNK d   0      12.126  -8.077  14.455  0.00  0.00    -0.650 OA
ATOM      2  C   UNK d   0      11.902  -7.435  15.506  0.00  0.00     0.139 C 
ENDROOT
BRANCH   2   3
ATOM      3  O   UNK d   0      11.461  -8.103  16.622  0.00  0.00    -0.776 OA
ATOM      4  H   UNK d   0      11.010  -9.017  16.546  0.00  0.00     0.167 HD
ENDBRANCH   2   3
BRANCH   2   5
ATOM      5  C   UNK d   0      12.114  -5.960  15.540  0.00  0.00     0.115 C 
BRANCH   5   6
ATOM      6  C   UNK d   0      10.908  -5.251  14.988  0.00  0.00     0.052 C 
BRANCH   6   7
ATOM      7  C   UNK d   0      11.202  -4.519  13.700  0.00  0.00    -0.020 A 
ATOM      8  C   UNK d   0      11.659  -3.301  13.561  0.00  0.00    -0.011 A 
ATOM      9  C   UNK d   0      11.775  -3.029  12.138  0.00  0.00     0.067 A 
ATOM     10  C   UNK d   0      12.207  -1.955  11.344  0.00  0.00     0.062 C 
ATOM     11  N   UNK d   0      11.362  -4.135  11.484  0.00  0.00    -0.248 NA
ATOM     12  C   UNK d   0      12.509  -1.979   9.978  0.00  0.00     0.041 A 
ATOM     13  N   UNK d   0      11.881  -2.566   8.941  0.00  0.00    -0.355 N 
ATOM     14  C   UNK d   0      13.686  -1.352   9.530  0.00  0.00    -0.022 A 
ATOM     15  C   UNK d   0      12.633  -2.333   7.849  0.00  0.00     0.042 A 
ATOM     16  H   UNK d   0      10.916  -3.116   8.977  0.00  0.00     0.166 HD
ATOM     17  C   UNK d   0      12.439  -2.717   6.507  0.00  0.00     0.062 C 
ATOM     18  C   UNK d   0      13.773  -1.575   8.179  0.00  0.00    -0.013 A 
ATOM     19  C   UNK d   0      12.056  -3.935   6.006  0.00  0.00     0.067 A 
ATOM     20  N   UNK d   0      11.613  -4.838   6.884  0.00  0.00    -0.248 NA
ATOM     21  C   UNK d   0      12.011  -4.557   4.693  0.00  0.00    -0.011 A 
ATOM     22  C   UNK d   0      11.282  -6.006   6.241  0.00  0.00     0.066 A 
ATOM     23  C   UNK d   0      10.770  -7.022   7.034  0.00  0.00     0.062 C 
ATOM     24  C   UNK d   0      11.561  -5.771   4.838  0.00  0.00    -0.020 A 
ATOM     25  C   UNK d   0      10.461  -6.974   8.402  0.00  0.00     0.041 A 
ATOM     26  N   UNK d   0      11.093  -6.404   9.435  0.00  0.00    -0.355 N 
ATOM     27  C   UNK d   0       9.277  -7.600   8.850  0.00  0.00    -0.022 A 
ATOM     28  C   UNK d   0      10.349  -6.642  10.527  0.00  0.00     0.042 A 
ATOM     29  H   UNK d   0      12.069  -5.860   9.399  0.00  0.00     0.166 HD
ATOM     30  C   UNK d   0      10.535  -6.274  11.869  0.00  0.00     0.062 C 
ATOM     31  C   UNK d   0       9.199  -7.395  10.193  0.00  0.00    -0.013 A 
ATOM     32  C   UNK d   0      11.004  -5.068  12.367  0.00  0.00     0.066 A 
BRANCH   8  33
ATOM     33  C   UNK d   0      11.997  -2.354  14.639  0.00  0.00     0.151 C 
BRANCH  33  34
ATOM     34  C   UNK d   0      10.888  -1.438  14.963  0.00  0.00     0.143 C 
ATOM     35  O   UNK d   0      10.752  -0.364  14.360  0.00  0.00    -0.650 OA
BRANCH  34  36
ATOM     36  O   UNK d   0       9.994  -1.783  15.950  0.00  0.00    -0.776 OA
ATOM     37  H   UNK d   0       9.003  -1.513  15.891  0.00  0.00     0.167 HD
ENDBRANCH  34  36
ENDBRANCH  33  34
ENDBRANCH   8  33
BRANCH  31  38
ATOM     38  C   UNK d   0       8.092  -7.872  11.104  0.00  0.00     0.151 C 
BRANCH  38  39
ATOM     39  C   UNK d   0       6.997  -6.930  11.198  0.00  0.00     0.143 C 
ATOM     40  O   UNK d   0       6.647  -6.218  10.240  0.00  0.00    -0.650 OA
BRANCH  39  41
ATOM     41  O   UNK d   0       6.299  -6.806  12.399  0.00  0.00    -0.776 OA
ATOM     42  H   UNK d   0       6.057  -5.856  12.697  0.00  0.00     0.167 HD
ENDBRANCH  39  41
ENDBRANCH  38  39
ENDBRANCH  31  38
BRANCH  27  43
ATOM     43  C   UNK d   0       8.245  -8.370   8.065  0.00  0.00     0.052 C 
BRANCH  43  44
ATOM     44  C   UNK d   0       8.550  -9.830   7.960  0.00  0.00     0.115 C 
BRANCH  44  45
ATOM     45  C   UNK d   0       7.358 -10.550   8.478  0.00  0.00     0.139 C 
ATOM     46  O   UNK d   0       7.278 -11.787   8.272  0.00  0.00    -0.650 OA
BRANCH  45  47
ATOM     47  O   UNK d   0       6.348  -9.921   9.174  0.00  0.00    -0.776 OA
ATOM     48  H   UNK d   0       5.652  -9.308   8.720  0.00  0.00     0.167 HD
ENDBRANCH  45  47
ENDBRANCH  44  45
ENDBRANCH  43  44
ENDBRANCH  27  43
BRANCH  24  49
ATOM     49  C   UNK d   0      11.320  -6.742   3.758  0.00  0.00     0.052 C 
BRANCH  49  50
ATOM     50  C   UNK d   0      12.558  -7.565   3.506  0.00  0.00     0.115 C 
BRANCH  50  51
ATOM     51  C   UNK d   0      13.386  -7.188   2.369  0.00  0.00     0.139 C 
ATOM     52  O   UNK d   0      12.955  -7.178   1.192  0.00  0.00    -0.650 OA
BRANCH  51  53
ATOM     53  O   UNK d   0      14.709  -6.824   2.574  0.00  0.00    -0.776 OA
ATOM     54  H   UNK d   0      15.218  -7.279   3.311  0.00  0.00     0.167 HD
ENDBRANCH  51  53
ENDBRANCH  50  51
ENDBRANCH  49  50
ENDBRANCH  24  49
BRANCH  21  55
ATOM     55  C   UNK d   0      12.417  -3.873   3.430  0.00  0.00     0.151 C 
BRANCH  55  56
ATOM     56  C   UNK d   0      13.791  -3.352   3.503  0.00  0.00     0.143 C 
ATOM     57  O   UNK d   0      14.083  -2.176   3.207  0.00  0.00    -0.650 OA
BRANCH  56  58
ATOM     58  O   UNK d   0      14.794  -4.223   3.924  0.00  0.00    -0.776 OA
ATOM     59  H   UNK d   0      15.632  -3.762   4.325  0.00  0.00     0.167 HD
ENDBRANCH  56  58
ENDBRANCH  55  56
ENDBRANCH  21  55
BRANCH  18  60
ATOM     60  C   UNK d   0      14.890  -1.083   7.292  0.00  0.00     0.151 C 
BRANCH  60  61
ATOM     61  C   UNK d   0      14.394   0.151   6.664  0.00  0.00     0.143 C 
ATOM     62  O   UNK d   0      14.333   1.270   7.173  0.00  0.00    -0.650 OA
BRANCH  61  63
ATOM     63  O   UNK d   0      13.943   0.008   5.329  0.00  0.00    -0.776 OA
ATOM     64  H   UNK d   0      13.383  -0.778   5.052  0.00  0.00     0.167 HD
ENDBRANCH  61  63
ENDBRANCH  60  61
ENDBRANCH  18  60
BRANCH  14  65
ATOM     65  C   UNK d   0      14.672  -0.483  10.258  0.00  0.00     0.052 C 
BRANCH  65  66
ATOM     66  C   UNK d   0      15.567  -1.252  11.164  0.00  0.00     0.115 C 
BRANCH  66  67
ATOM     67  C   UNK d   0      16.726  -1.909  10.629  0.00  0.00     0.139 C 
ATOM     68  O   UNK d   0      17.038  -3.071  11.084  0.00  0.00    -0.650 OA
BRANCH  67  69
ATOM     69  O   UNK d   0      17.594  -1.441   9.643  0.00  0.00    -0.776 OA
ATOM     70  H   UNK d   0      18.073  -2.164   9.087  0.00  0.00     0.167 HD
ENDBRANCH  67  69
ENDBRANCH  66  67
ENDBRANCH  65  66
ENDBRANCH  14  65
ENDBRANCH   6   7
ENDBRANCH   5   6
ENDBRANCH   2   5
TORSDOF 28
ENDMDL
MODEL 3
REMARK VINA RESULT:      -8.9      2.091     10.090
REMARK  28 active torsions:
REMARK  status: ('A' for Active; 'I' for Inactive)
REMARK    1  A    between atoms: C_2  and  O_3 
REMARK    2  A    between atoms: C_2  and  C_4 
REMARK    3  A    between atoms: C_4  and  C_5 
REMARK    4  A    between atoms: C_5  and  C_6 
REMARK    5  A    between atoms: C_7  and  C_8 
REMARK    6  A    between atoms: C_8  and  C_9 
REMARK    7  A    between atoms: C_9  and  O_11 
REMARK    8  A    between atoms: C_28  and  C_29 
REMARK    9  A    between atoms: C_29  and  C_30 
REMARK   10  A    between atoms: C_30  and  O_32 
REMARK   11  A    between atoms: C_33  and  C_34 
REMARK   12  A    between atoms: C_34  and  C_35 
REMARK   13  A    between atoms: C_35  and  C_36 
REMARK   14  A    between atoms: C_36  and  O_38 
REMARK   15  A    between atoms: C_39  and  C_40 
REMARK   16  A    between atoms: C_40  and  C_41 
REMARK   17  A    between atoms: C_41  and  C_42 
REMARK   18  A    between atoms: C_42  and  O_44 
REMARK   19  A    between atoms: C_45  and  C_46 
REMARK   20  A    between atoms: C_46  and  C_47 
REMARK   21  A    between atoms: C_47  and  O_49 
REMARK   22  A    between atoms: C_50  and  C_51 
REMARK   23  A    between atoms: C_51  and  C_52 
REMARK   24  A    between atoms: C_52  and  O_54 
REMARK   25  A    between atoms: C_55  and  C_56 
REMARK   26  A    between atoms: C_56  and  C_57 
REMARK   27  A    between atoms: C_57  and  C_58 
REMARK   28  A    between atoms: C_58  and  O_60 
ROOT
ATOM      1  O   UNK d   0       9.553  -5.338  17.016  0.00  0.00    -0.650 OA
ATOM      2  C   UNK d   0      10.495  -4.967  16.281  0.00  0.00     0.139 C 
ENDROOT
BRANCH   2   3
ATOM      3  O   UNK d   0      11.355  -5.906  15.764  0.00  0.00    -0.776 OA
ATOM      4  H   UNK d   0      12.286  -5.643  15.434  0.00  0.00     0.167 HD
ENDBRANCH   2   3
BRANCH   2   5
ATOM      5  C   UNK d   0      10.680  -3.520  15.974  0.00  0.00     0.115 C 
BRANCH   5   6
ATOM      6  C   UNK d   0      12.088  -3.266  15.508  0.00  0.00     0.052 C 
BRANCH   6   7
ATOM      7  C   UNK d   0      12.140  -2.594  14.156  0.00  0.00    -0.020 A 
ATOM      8  C   UNK d   0      12.447  -1.349  13.896  0.00  0.00    -0.011 A 
ATOM      9  C   UNK d   0      12.353  -1.160  12.458  0.00  0.00     0.067 A 
ATOM     10  C   UNK d   0      12.567  -0.102  11.559  0.00  0.00     0.062 C 
ATOM     11  N   UNK d   0      11.977  -2.340  11.922  0.00  0.00    -0.248 NA
ATOM     12  C   UNK d   0      12.696  -0.185  10.169  0.00  0.00     0.041 A 
ATOM     13  N   UNK d   0      12.006  -0.894   9.255  0.00  0.00    -0.355 N 
ATOM     14  C   UNK d   0      13.735   0.523   9.538  0.00  0.00    -0.022 A 
ATOM     15  C   UNK d   0      12.586  -0.661   8.063  0.00  0.00     0.042 A 
ATOM     16  H   UNK d   0      11.115  -1.532   9.447  0.00  0.00     0.166 HD
ATOM     17  C   UNK d   0      12.264  -1.148   6.780  0.00  0.00     0.062 C 
ATOM     18  C   UNK d   0      13.674   0.222   8.200  0.00  0.00    -0.013 A 
ATOM     19  C   UNK d   0      11.949  -2.427   6.397  0.00  0.00     0.067 A 
ATOM     20  N   UNK d   0      11.716  -3.310   7.372  0.00  0.00    -0.248 NA
ATOM     21  C   UNK d   0      11.803  -3.133   5.135  0.00  0.00    -0.011 A 
ATOM     22  C   UNK d   0      11.430  -4.543   6.839  0.00  0.00     0.066 A 
ATOM     23  C   UNK d   0      11.130  -5.551   7.743  0.00  0.00     0.062 C 
ATOM     24  C   UNK d   0      11.503  -4.372   5.401  0.00  0.00    -0.020 A 
ATOM     25  C   UNK d   0      10.993  -5.444   9.136  0.00  0.00     0.041 A 
ATOM     26  N   UNK d   0      11.688  -4.751  10.046  0.00  0.00    -0.355 N 
ATOM     27  C   UNK d   0       9.947  -6.151   9.768  0.00  0.00    -0.022 A 
ATOM     28  C   UNK d   0      11.117  -4.989  11.237  0.00  0.00     0.042 A 
ATOM     29  H   UNK d   0      12.590  -4.119   9.853  0.00  0.00     0.166 HD
ATOM     30  C   UNK d   0      11.432  -4.518  12.522  0.00  0.00     0.062 C 
ATOM     31  C   UNK d   0      10.018  -5.868  11.097  0.00  0.00    -0.013 A 
ATOM     32  C   UNK d   0      11.833  -3.244  12.891  0.00  0.00     0.066 A 
BRANCH   8  33
ATOM     33  C   UNK d   0      12.819  -0.306  14.870  0.00  0.00     0.151 C 
BRANCH  33  34
ATOM     34  C   UNK d   0      11.740   0.672  15.098  0.00  0.00     0.143 C 
ATOM     35  O   UNK d   0      10.806   0.420  15.873  0.00  0.00    -0.650 OA
BRANCH  34  36
ATOM     36  O   UNK d   0      11.772   1.879  14.440  0.00  0.00    -0.776 OA
ATOM     37  H   UNK d   0      12.574   2.518  14.534  0.00  0.00     0.167 HD
ENDBRANCH  34  36
ENDBRANCH  33  34
ENDBRANCH   8  33
BRANCH  31  38
ATOM     38  C   UNK d   0       9.090  -6.389  12.170  0.00  0.00     0.151 C 
BRANCH  38  39
ATOM     39  C   UNK d   0       9.691  -7.434  12.972  0.00  0.00     0.143 C 
ATOM     40  O   UNK d   0       9.376  -7.626  14.160  0.00  0.00    -0.650 OA
BRANCH  39  41
ATOM     41  O   UNK d   0      10.658  -8.264  12.405  0.00  0.00    -0.776 OA
ATOM     42  H   UNK d   0      10.527  -8.521  11.422  0.00  0.00     0.167 HD
ENDBRANCH  39  41
ENDBRANCH  38  39
ENDBRANCH  31  38
BRANCH  27  43
ATOM     43  C   UNK d   0       8.909  -7.066   9.167  0.00  0.00     0.052 C 
BRANCH  43  44
ATOM     44  C   UNK d   0       9.304  -8.506   9.194  0.00  0.00     0.115 C 
BRANCH  44  45
ATOM     45  C   UNK d   0       8.931  -9.074   7.872  0.00  0.00     0.139 C 
ATOM     46  O   UNK d   0       9.283  -8.450   6.840  0.00  0.00    -0.650 OA
BRANCH  45  47
ATOM     47  O   UNK d   0       8.226 -10.250   7.736  0.00  0.00    -0.776 OA
ATOM     48  H   UNK d   0       8.162 -10.955   8.487  0.00  0.00     0.167 HD
ENDBRANCH  45  47
ENDBRANCH  44  45
ENDBRANCH  43  44
ENDBRANCH  27  43
BRANCH  24  49
ATOM     49  C   UNK d   0      11.230  -5.430   4.413  0.00  0.00     0.052 C 
BRANCH  49  50
ATOM     50  C   UNK d   0      12.474  -6.239   4.153  0.00  0.00     0.115 C 
BRANCH  50  51
ATOM     51  C   UNK d   0      13.124  -6.062   2.861  0.00  0.00     0.139 C 
ATOM     52  O   UNK d   0      14.369  -6.106   2.719  0.00  0.00    -0.650 OA
BRANCH  51  53
ATOM     53  O   UNK d   0      12.354  -5.833   1.731  0.00  0.00    -0.776 OA
ATOM     54  H   UNK d   0      11.358  -5.755   1.842  0.00  0.00     0.167 HD
ENDBRANCH  51  53
ENDBRANCH  50  51
ENDBRANCH  49  50
ENDBRANCH  24  49
BRANCH  21  55
ATOM     55  C   UNK d   0      11.974  -2.496   3.797  0.00  0.00     0.151 C 
BRANCH  55  56
ATOM     56  C   UNK d   0      13.352  -2.030   3.579  0.00  0.00     0.143 C 
ATOM     57  O   UNK d   0      14.328  -2.805   3.541  0.00  0.00    -0.650 OA
BRANCH  56  58
ATOM     58  O   UNK d   0      13.556  -0.662   3.411  0.00  0.00    -0.776 OA
ATOM     59  H   UNK d   0      14.202  -0.229   4.096  0.00  0.00     0.167 HD
ENDBRANCH  56  58
ENDBRANCH  55  56
ENDBRANCH  21  55
BRANCH  18  60
ATOM     60  C   UNK d   0      14.613   0.761   7.149  0.00  0.00     0.151 C 
BRANCH  60  61
ATOM     61  C   UNK d   0      15.910   0.114   7.397  0.00  0.00     0.143 C 
ATOM     62  O   UNK d   0      16.106  -1.060   7.710  0.00  0.00    -0.650 OA
BRANCH  61  63
ATOM     63  O   UNK d   0      17.040   0.955   7.253  0.00  0.00    -0.776 OA
ATOM     64  H   UNK d   0      17.413   1.460   8.037  0.00  0.00     0.167 HD
ENDBRANCH  61  63
ENDBRANCH  60  61
ENDBRANCH  18  60
BRANCH  14  65
ATOM     65  C   UNK d   0      14.710   1.527  10.084  0.00  0.00     0.052 C 
BRANCH  65  66
ATOM     66  C   UNK d   0      14.128   2.890  10.217  0.00  0.00     0.115 C 
BRANCH  66  67
ATOM     67  C   UNK d   0      13.786   3.393  11.518  0.00  0.00     0.139 C 
ATOM     68  O   UNK d   0      14.727   3.857  12.262  0.00  0.00    -0.650 OA
BRANCH  67  69
ATOM     69  O   UNK d   0      12.524   3.450  12.106  0.00  0.00    -0.776 OA
ATOM     70  H   UNK d   0      12.476   3.924  13.020  0.00  0.00     0.167 HD
ENDBRANCH  67  69
ENDBRANCH  66  67
ENDBRANCH  65  66
ENDBRANCH  14  65
ENDBRANCH   6   7
ENDBRANCH   5   6
ENDBRANCH   2   5
TORSDOF 28
ENDMDL
MODEL 4
REMARK VINA RESULT:      -8.9     30.470     34.429
REMARK  28 active torsions:
REMARK  status: ('A' for Active; 'I' for Inactive)
REMARK    1  A    between atoms: C_2  and  O_3 
REMARK    2  A    between atoms: C_2  and  C_4 
REMARK    3  A    between atoms: C_4  and  C_5 
REMARK    4  A    between atoms: C_5  and  C_6 
REMARK    5  A    between atoms: C_7  and  C_8 
REMARK    6  A    between atoms: C_8  and  C_9 
REMARK    7  A    between atoms: C_9  and  O_11 
REMARK    8  A    between atoms: C_28  and  C_29 
REMARK    9  A    between atoms: C_29  and  C_30 
REMARK   10  A    between atoms: C_30  and  O_32 
REMARK   11  A    between atoms: C_33  and  C_34 
REMARK   12  A    between atoms: C_34  and  C_35 
REMARK   13  A    between atoms: C_35  and  C_36 
REMARK   14  A    between atoms: C_36  and  O_38 
REMARK   15  A    between atoms: C_39  and  C_40 
REMARK   16  A    between atoms: C_40  and  C_41 
REMARK   17  A    between atoms: C_41  and  C_42 
REMARK   18  A    between atoms: C_42  and  O_44 
REMARK   19  A    between atoms: C_45  and  C_46 
REMARK   20  A    between atoms: C_46  and  C_47 
REMARK   21  A    between atoms: C_47  and  O_49 
REMARK   22  A    between atoms: C_50  and  C_51 
REMARK   23  A    between atoms: C_51  and  C_52 
REMARK   24  A    between atoms: C_52  and  O_54 
REMARK   25  A    between atoms: C_55  and  C_56 
REMARK   26  A    between atoms: C_56  and  C_57 
REMARK   27  A    between atoms: C_57  and  C_58 
REMARK   28  A    between atoms: C_58  and  O_60 
ROOT
ATOM      1  O   UNK d   0     -12.891   4.947  -3.738  0.00  0.00    -0.650 OA
ATOM      2  C   UNK d   0     -12.886   4.741  -4.972  0.00  0.00     0.139 C 
ENDROOT
BRANCH   2   3
ATOM      3  O   UNK d   0     -11.869   5.258  -5.738  0.00  0.00    -0.776 OA
ATOM      4  H   UNK d   0     -11.124   4.658  -6.099  0.00  0.00     0.167 HD
ENDBRANCH   2   3
BRANCH   2   5
ATOM      5  C   UNK d   0     -13.976   3.943  -5.602  0.00  0.00     0.115 C 
BRANCH   5   6
ATOM      6  C   UNK d   0     -14.336   2.775  -4.724  0.00  0.00     0.052 C 
BRANCH   6   7
ATOM      7  C   UNK d   0     -14.694   1.540  -5.516  0.00  0.00    -0.020 A 
ATOM      8  C   UNK d   0     -15.499   0.571  -5.164  0.00  0.00    -0.011 A 
ATOM      9  C   UNK d   0     -15.525  -0.401  -6.243  0.00  0.00     0.067 A 
ATOM     10  C   UNK d   0     -16.181  -1.616  -6.497  0.00  0.00     0.062 C 
ATOM     11  N   UNK d   0     -14.701   0.053  -7.211  0.00  0.00    -0.248 NA
ATOM     12  C   UNK d   0     -16.293  -2.278  -7.724  0.00  0.00     0.041 A 
ATOM     13  N   UNK d   0     -15.390  -2.499  -8.698  0.00  0.00    -0.355 N 
ATOM     14  C   UNK d   0     -17.547  -2.786  -8.111  0.00  0.00    -0.022 A 
ATOM     15  C   UNK d   0     -16.040  -3.127  -9.696  0.00  0.00     0.042 A 
ATOM     16  H   UNK d   0     -14.310  -2.234  -8.672  0.00  0.00     0.166 HD
ATOM     17  C   UNK d   0     -15.572  -3.587 -10.943  0.00  0.00     0.062 C 
ATOM     18  C   UNK d   0     -17.394  -3.324  -9.365  0.00  0.00    -0.013 A 
ATOM     19  C   UNK d   0     -14.759  -2.952 -11.848  0.00  0.00     0.067 A 
ATOM     20  N   UNK d   0     -14.157  -1.833 -11.438  0.00  0.00    -0.248 NA
ATOM     21  C   UNK d   0     -14.359  -3.173 -13.227  0.00  0.00    -0.011 A 
ATOM     22  C   UNK d   0     -13.393  -1.304 -12.449  0.00  0.00     0.066 A 
ATOM     23  C   UNK d   0     -12.679  -0.154 -12.146  0.00  0.00     0.062 C 
ATOM     24  C   UNK d   0     -13.563  -2.203 -13.575  0.00  0.00    -0.020 A 
ATOM     25  C   UNK d   0     -12.570   0.488 -10.903  0.00  0.00     0.041 A 
ATOM     26  N   UNK d   0     -13.471   0.721  -9.942  0.00  0.00    -0.355 N 
ATOM     27  C   UNK d   0     -11.310   0.993 -10.514  0.00  0.00    -0.022 A 
ATOM     28  C   UNK d   0     -12.827   1.355  -8.949  0.00  0.00     0.042 A 
ATOM     29  H   UNK d   0     -14.558   0.464  -9.974  0.00  0.00     0.166 HD
ATOM     30  C   UNK d   0     -13.282   1.826  -7.707  0.00  0.00     0.062 C 
ATOM     31  C   UNK d   0     -11.464   1.543  -9.278  0.00  0.00    -0.013 A 
ATOM     32  C   UNK d   0     -14.171   1.218  -6.835  0.00  0.00     0.066 A 
BRANCH   8  33
ATOM     33  C   UNK d   0     -16.252   0.461  -3.900  0.00  0.00     0.151 C 
BRANCH  33  34
ATOM     34  C   UNK d   0     -15.474  -0.185  -2.827  0.00  0.00     0.143 C 
ATOM     35  O   UNK d   0     -14.457  -0.844  -3.087  0.00  0.00    -0.650 OA
BRANCH  34  36
ATOM     36  O   UNK d   0     -15.887  -0.055  -1.522  0.00  0.00    -0.776 OA
ATOM     37  H   UNK d   0     -16.230  -0.864  -0.986  0.00  0.00     0.167 HD
ENDBRANCH  34  36
ENDBRANCH  33  34
ENDBRANCH   8  33
BRANCH  31  38
ATOM     38  C   UNK d   0     -10.381   2.195  -8.452  0.00  0.00     0.151 C 
BRANCH  38  39
ATOM     39  C   UNK d   0     -10.251   3.613  -8.715  0.00  0.00     0.143 C 
ATOM     40  O   UNK d   0     -11.214   4.395  -8.637  0.00  0.00    -0.650 OA
BRANCH  39  41
ATOM     41  O   UNK d   0      -9.006   4.134  -9.069  0.00  0.00    -0.776 OA
ATOM     42  H   UNK d   0      -8.247   3.460  -9.208  0.00  0.00     0.167 HD
ENDBRANCH  39  41
ENDBRANCH  38  39
ENDBRANCH  31  38
BRANCH  27  43
ATOM     43  C   UNK d   0      -9.998   0.974 -11.258  0.00  0.00     0.052 C 
BRANCH  43  44
ATOM     44  C   UNK d   0      -9.713   2.248 -11.985  0.00  0.00     0.115 C 
BRANCH  44  45
ATOM     45  C   UNK d   0      -9.354   1.871 -13.377  0.00  0.00     0.139 C 
ATOM     46  O   UNK d   0     -10.282   1.570 -14.167  0.00  0.00    -0.650 OA
BRANCH  45  47
ATOM     47  O   UNK d   0      -8.053   1.844 -13.832  0.00  0.00    -0.776 OA
ATOM     48  H   UNK d   0      -7.255   1.581 -13.231  0.00  0.00     0.167 HD
ENDBRANCH  45  47
ENDBRANCH  44  45
ENDBRANCH  43  44
ENDBRANCH  27  43
BRANCH  24  49
ATOM     49  C   UNK d   0     -12.893  -2.053 -14.878  0.00  0.00     0.052 C 
BRANCH  49  50
ATOM     50  C   UNK d   0     -13.351  -0.790 -15.561  0.00  0.00     0.115 C 
BRANCH  50  51
ATOM     51  C   UNK d   0     -14.751  -0.719 -15.959  0.00  0.00     0.139 C 
ATOM     52  O   UNK d   0     -15.277  -1.553 -16.734  0.00  0.00    -0.650 OA
BRANCH  51  53
ATOM     53  O   UNK d   0     -15.550   0.304 -15.474  0.00  0.00    -0.776 OA
ATOM     54  H   UNK d   0     -16.412   0.501 -15.952  0.00  0.00     0.167 HD
ENDBRANCH  51  53
ENDBRANCH  50  51
ENDBRANCH  49  50
ENDBRANCH  24  49
BRANCH  21  55
ATOM     55  C   UNK d   0     -14.809  -4.332 -14.053  0.00  0.00     0.151 C 
BRANCH  55  56
ATOM     56  C   UNK d   0     -14.246  -5.603 -13.573  0.00  0.00     0.143 C 
ATOM     57  O   UNK d   0     -13.071  -5.711 -13.171  0.00  0.00    -0.650 OA
BRANCH  56  58
ATOM     58  O   UNK d   0     -15.076  -6.723 -13.575  0.00  0.00    -0.776 OA
ATOM     59  H   UNK d   0     -15.704  -6.799 -14.395  0.00  0.00     0.167 HD
ENDBRANCH  56  58
ENDBRANCH  55  56
ENDBRANCH  21  55
BRANCH  18  60
ATOM     60  C   UNK d   0     -18.495  -3.973 -10.167  0.00  0.00     0.151 C 
BRANCH  60  61
ATOM     61  C   UNK d   0     -18.988  -2.938 -11.088  0.00  0.00     0.143 C 
ATOM     62  O   UNK d   0     -19.399  -1.816 -10.792  0.00  0.00    -0.650 OA
BRANCH  61  63
ATOM     63  O   UNK d   0     -18.979  -3.296 -12.458  0.00  0.00    -0.776 OA
ATOM     64  H   UNK d   0     -19.829  -3.529 -12.938  0.00  0.00     0.167 HD
ENDBRANCH  61  63
ENDBRANCH  60  61
ENDBRANCH  18  60
BRANCH  14  65
ATOM     65  C   UNK d   0     -18.840  -2.888  -7.354  0.00  0.00     0.052 C 
BRANCH  65  66
ATOM     66  C   UNK d   0     -19.751  -1.738  -7.601  0.00  0.00     0.115 C 
BRANCH  66  67
ATOM     67  C   UNK d   0     -19.955  -0.758  -6.571  0.00  0.00     0.139 C 
ATOM     68  O   UNK d   0     -19.439  -0.969  -5.412  0.00  0.00    -0.650 OA
BRANCH  67  69
ATOM     69  O   UNK d   0     -20.665   0.439  -6.661  0.00  0.00    -0.776 OA
ATOM     70  H   UNK d   0     -21.520   0.410  -7.234  0.00  0.00     0.167 HD
ENDBRANCH  67  69
ENDBRANCH  66  67
ENDBRANCH  65  66
ENDBRANCH  14  65
ENDBRANCH   6   7
ENDBRANCH   5   6
ENDBRANCH   2   5
TORSDOF 28
ENDMDL
MODEL 5
REMARK VINA RESULT:      -8.8      2.258      9.885
REMARK  28 active torsions:
REMARK  status: ('A' for Active; 'I' for Inactive)
REMARK    1  A    between atoms: C_2  and  O_3 
REMARK    2  A    between atoms: C_2  and  C_4 
REMARK    3  A    between atoms: C_4  and  C_5 
REMARK    4  A    between atoms: C_5  and  C_6 
REMARK    5  A    between atoms: C_7  and  C_8 
REMARK    6  A    between atoms: C_8  and  C_9 
REMARK    7  A    between atoms: C_9  and  O_11 
REMARK    8  A    between atoms: C_28  and  C_29 
REMARK    9  A    between atoms: C_29  and  C_30 
REMARK   10  A    between atoms: C_30  and  O_32 
REMARK   11  A    between atoms: C_33  and  C_34 
REMARK   12  A    between atoms: C_34  and  C_35 
REMARK   13  A    between atoms: C_35  and  C_36 
REMARK   14  A    between atoms: C_36  and  O_38 
REMARK   15  A    between atoms: C_39  and  C_40 
REMARK   16  A    between atoms: C_40  and  C_41 
REMARK   17  A    between atoms: C_41  and  C_42 
REMARK   18  A    between atoms: C_42  and  O_44 
REMARK   19  A    between atoms: C_45  and  C_46 
REMARK   20  A    between atoms: C_46  and  C_47 
REMARK   21  A    between atoms: C_47  and  O_49 
REMARK   22  A    between atoms: C_50  and  C_51 
REMARK   23  A    between atoms: C_51  and  C_52 
REMARK   24  A    between atoms: C_52  and  O_54 
REMARK   25  A    between atoms: C_55  and  C_56 
REMARK   26  A    between atoms: C_56  and  C_57 
REMARK   27  A    between atoms: C_57  and  C_58 
REMARK   28  A    between atoms: C_58  and  O_60 
ROOT
ATOM      1  O   UNK d   0       8.096 -12.773   8.330  0.00  0.00    -0.650 OA
ATOM      2  C   UNK d   0       7.772 -11.567   8.399  0.00  0.00     0.139 C 
ENDROOT
BRANCH   2   3
ATOM      3  O   UNK d   0       6.482 -11.235   8.740  0.00  0.00    -0.776 OA
ATOM      4  H   UNK d   0       5.988 -11.733   9.482  0.00  0.00     0.167 HD
ENDBRANCH   2   3
BRANCH   2   5
ATOM      5  C   UNK d   0       8.776 -10.503   8.113  0.00  0.00     0.115 C 
BRANCH   5   6
ATOM      6  C   UNK d   0       8.094  -9.170   7.973  0.00  0.00     0.052 C 
BRANCH   6   7
ATOM      7  C   UNK d   0       8.631  -8.138   8.934  0.00  0.00    -0.020 A 
ATOM      8  C   UNK d   0       8.210  -7.880  10.146  0.00  0.00    -0.011 A 
ATOM      9  C   UNK d   0       9.025  -6.802  10.681  0.00  0.00     0.067 A 
ATOM     10  C   UNK d   0       9.102  -6.095  11.891  0.00  0.00     0.062 C 
ATOM     11  N   UNK d   0       9.914  -6.460   9.725  0.00  0.00    -0.248 NA
ATOM     12  C   UNK d   0      10.145  -5.270  12.325  0.00  0.00     0.041 A 
ATOM     13  N   UNK d   0      10.871  -4.341  11.673  0.00  0.00    -0.355 N 
ATOM     14  C   UNK d   0      10.616  -5.404  13.644  0.00  0.00    -0.022 A 
ATOM     15  C   UNK d   0      11.795  -3.890  12.541  0.00  0.00     0.042 A 
ATOM     16  H   UNK d   0      10.720  -3.998  10.626  0.00  0.00     0.166 HD
ATOM     17  C   UNK d   0      12.803  -2.918  12.379  0.00  0.00     0.062 C 
ATOM     18  C   UNK d   0      11.667  -4.533  13.788  0.00  0.00    -0.013 A 
ATOM     19  C   UNK d   0      13.674  -2.745  11.334  0.00  0.00     0.067 A 
ATOM     20  N   UNK d   0      13.435  -3.448  10.225  0.00  0.00    -0.248 NA
ATOM     21  C   UNK d   0      14.876  -1.963  11.094  0.00  0.00    -0.011 A 
ATOM     22  C   UNK d   0      14.393  -3.184   9.277  0.00  0.00     0.066 A 
ATOM     23  C   UNK d   0      14.243  -3.823   8.055  0.00  0.00     0.062 C 
ATOM     24  C   UNK d   0      15.293  -2.228   9.890  0.00  0.00    -0.020 A 
ATOM     25  C   UNK d   0      13.181  -4.638   7.634  0.00  0.00     0.041 A 
ATOM     26  N   UNK d   0      12.470  -5.571   8.278  0.00  0.00    -0.355 N 
ATOM     27  C   UNK d   0      12.706  -4.499   6.312  0.00  0.00    -0.022 A 
ATOM     28  C   UNK d   0      11.553  -6.030   7.411  0.00  0.00     0.042 A 
ATOM     29  H   UNK d   0      12.629  -5.922   9.327  0.00  0.00     0.166 HD
ATOM     30  C   UNK d   0      10.551  -7.002   7.556  0.00  0.00     0.062 C 
ATOM     31  C   UNK d   0      11.676  -5.375   6.162  0.00  0.00    -0.013 A 
ATOM     32  C   UNK d   0       9.730  -7.227   8.649  0.00  0.00     0.066 A 
BRANCH   8  33
ATOM     33  C   UNK d   0       7.105  -8.546  10.859  0.00  0.00     0.151 C 
BRANCH  33  34
ATOM     34  C   UNK d   0       5.818  -7.845  10.701  0.00  0.00     0.143 C 
ATOM     35  O   UNK d   0       5.714  -6.869   9.944  0.00  0.00    -0.650 OA
BRANCH  34  36
ATOM     36  O   UNK d   0       4.720  -8.281  11.406  0.00  0.00    -0.776 OA
ATOM     37  H   UNK d   0       4.049  -8.944  10.994  0.00  0.00     0.167 HD
ENDBRANCH  34  36
ENDBRANCH  33  34
ENDBRANCH   8  33
BRANCH  31  38
ATOM     38  C   UNK d   0      10.847  -5.572   4.914  0.00  0.00     0.151 C 
BRANCH  38  39
ATOM     39  C   UNK d   0      11.482  -6.445   3.950  0.00  0.00     0.143 C 
ATOM     40  O   UNK d   0      12.136  -7.446   4.289  0.00  0.00    -0.650 OA
BRANCH  39  41
ATOM     41  O   UNK d   0      11.363  -6.165   2.589  0.00  0.00    -0.776 OA
ATOM     42  H   UNK d   0      10.416  -6.172   2.197  0.00  0.00     0.167 HD
ENDBRANCH  39  41
ENDBRANCH  38  39
ENDBRANCH  31  38
BRANCH  27  43
ATOM     43  C   UNK d   0      13.187  -3.586   5.211  0.00  0.00     0.052 C 
BRANCH  43  44
ATOM     44  C   UNK d   0      12.345  -2.363   5.048  0.00  0.00     0.115 C 
BRANCH  44  45
ATOM     45  C   UNK d   0      13.281  -1.212   4.961  0.00  0.00     0.139 C 
ATOM     46  O   UNK d   0      14.043  -0.994   5.935  0.00  0.00    -0.650 OA
BRANCH  45  47
ATOM     47  O   UNK d   0      13.348  -0.385   3.860  0.00  0.00    -0.776 OA
ATOM     48  H   UNK d   0      14.017  -0.534   3.088  0.00  0.00     0.167 HD
ENDBRANCH  45  47
ENDBRANCH  44  45
ENDBRANCH  43  44
ENDBRANCH  27  43
BRANCH  24  49
ATOM     49  C   UNK d   0      16.460  -1.624   9.223  0.00  0.00     0.052 C 
BRANCH  49  50
ATOM     50  C   UNK d   0      16.047  -0.397   8.452  0.00  0.00     0.115 C 
BRANCH  50  51
ATOM     51  C   UNK d   0      17.041   0.655   8.294  0.00  0.00     0.139 C 
ATOM     52  O   UNK d   0      16.740   1.872   8.271  0.00  0.00    -0.650 OA
BRANCH  51  53
ATOM     53  O   UNK d   0      18.380   0.320   8.162  0.00  0.00    -0.776 OA
ATOM     54  H   UNK d   0      18.973   0.934   7.630  0.00  0.00     0.167 HD
ENDBRANCH  51  53
ENDBRANCH  50  51
ENDBRANCH  49  50
ENDBRANCH  24  49
BRANCH  21  55
ATOM     55  C   UNK d   0      15.478  -1.030  12.092  0.00  0.00     0.151 C 
BRANCH  55  56
ATOM     56  C   UNK d   0      16.461  -1.704  12.954  0.00  0.00     0.143 C 
ATOM     57  O   UNK d   0      16.874  -2.859  12.732  0.00  0.00    -0.650 OA
BRANCH  56  58
ATOM     58  O   UNK d   0      16.940  -1.005  14.061  0.00  0.00    -0.776 OA
ATOM     59  H   UNK d   0      17.306  -0.058  13.854  0.00  0.00     0.167 HD
ENDBRANCH  56  58
ENDBRANCH  55  56
ENDBRANCH  21  55
BRANCH  18  60
ATOM     60  C   UNK d   0      12.476  -4.355  15.048  0.00  0.00     0.151 C 
BRANCH  60  61
ATOM     61  C   UNK d   0      13.694  -5.159  14.864  0.00  0.00     0.143 C 
ATOM     62  O   UNK d   0      14.780  -4.773  14.430  0.00  0.00    -0.650 OA
BRANCH  61  63
ATOM     63  O   UNK d   0      13.578  -6.521  15.233  0.00  0.00    -0.776 OA
ATOM     64  H   UNK d   0      13.844  -6.834  16.150  0.00  0.00     0.167 HD
ENDBRANCH  61  63
ENDBRANCH  60  61
ENDBRANCH  18  60
BRANCH  14  65
ATOM     65  C   UNK d   0      10.091  -6.214  14.795  0.00  0.00     0.052 C 
BRANCH  65  66
ATOM     66  C   UNK d   0      10.107  -7.678  14.531  0.00  0.00     0.115 C 
BRANCH  66  67
ATOM     67  C   UNK d   0      11.009  -8.523  15.263  0.00  0.00     0.139 C 
ATOM     68  O   UNK d   0      11.337  -8.181  16.458  0.00  0.00    -0.650 OA
BRANCH  67  69
ATOM     69  O   UNK d   0      11.601  -9.711  14.835  0.00  0.00    -0.776 OA
ATOM     70  H   UNK d   0      10.981 -10.368  14.339  0.00  0.00     0.167 HD
ENDBRANCH  67  69
ENDBRANCH  66  67
ENDBRANCH  65  66
ENDBRANCH  14  65
ENDBRANCH   6   7
ENDBRANCH   5   6
ENDBRANCH   2   5
TORSDOF 28
ENDMDL
MODEL 6
REMARK VINA RESULT:      -8.8      1.730      8.333
REMARK  28 active torsions:
REMARK  status: ('A' for Active; 'I' for Inactive)
REMARK    1  A    between atoms: C_2  and  O_3 
REMARK    2  A    between atoms: C_2  and  C_4 
REMARK    3  A    between atoms: C_4  and  C_5 
REMARK    4  A    between atoms: C_5  and  C_6 
REMARK    5  A    between atoms: C_7  and  C_8 
REMARK    6  A    between atoms: C_8  and  C_9 
REMARK    7  A    between atoms: C_9  and  O_11 
REMARK    8  A    between atoms: C_28  and  C_29 
REMARK    9  A    between atoms: C_29  and  C_30 
REMARK   10  A    between atoms: C_30  and  O_32 
REMARK   11  A    between atoms: C_33  and  C_34 
REMARK   12  A    between atoms: C_34  and  C_35 
REMARK   13  A    between atoms: C_35  and  C_36 
REMARK   14  A    between atoms: C_36  and  O_38 
REMARK   15  A    between atoms: C_39  and  C_40 
REMARK   16  A    between atoms: C_40  and  C_41 
REMARK   17  A    between atoms: C_41  and  C_42 
REMARK   18  A    between atoms: C_42  and  O_44 
REMARK   19  A    between atoms: C_45  and  C_46 
REMARK   20  A    between atoms: C_46  and  C_47 
REMARK   21  A    between atoms: C_47  and  O_49 
REMARK   22  A    between atoms: C_50  and  C_51 
REMARK   23  A    between atoms: C_51  and  C_52 
REMARK   24  A    between atoms: C_52  and  O_54 
REMARK   25  A    between atoms: C_55  and  C_56 
REMARK   26  A    between atoms: C_56  and  C_57 
REMARK   27  A    between atoms: C_57  and  C_58 
REMARK   28  A    between atoms: C_58  and  O_60 
ROOT
ATOM      1  O   UNK d   0       8.894  -0.861  16.657  0.00  0.00    -0.650 OA
ATOM      2  C   UNK d   0       9.700  -1.445  17.415  0.00  0.00     0.139 C 
ENDROOT
BRANCH   2   3
ATOM      3  O   UNK d   0       9.239  -2.021  18.574  0.00  0.00    -0.776 OA
ATOM      4  H   UNK d   0       8.383  -1.689  19.024  0.00  0.00     0.167 HD
ENDBRANCH   2   3
BRANCH   2   5
ATOM      5  C   UNK d   0      11.146  -1.511  17.061  0.00  0.00     0.115 C 
BRANCH   5   6
ATOM      6  C   UNK d   0      11.638  -2.930  17.153  0.00  0.00     0.052 C 
BRANCH   6   7
ATOM      7  C   UNK d   0      11.224  -3.767  15.966  0.00  0.00    -0.020 A 
ATOM      8  C   UNK d   0      10.335  -4.727  15.937  0.00  0.00    -0.011 A 
ATOM      9  C   UNK d   0      10.285  -5.245  14.580  0.00  0.00     0.067 A 
ATOM     10  C   UNK d   0       9.552  -6.230  13.899  0.00  0.00     0.062 C 
ATOM     11  N   UNK d   0      11.180  -4.546  13.850  0.00  0.00    -0.248 NA
ATOM     12  C   UNK d   0       9.444  -6.400  12.514  0.00  0.00     0.041 A 
ATOM     13  N   UNK d   0      10.369  -6.334  11.538  0.00  0.00    -0.355 N 
ATOM     14  C   UNK d   0       8.174  -6.629  11.954  0.00  0.00    -0.022 A 
ATOM     15  C   UNK d   0       9.718  -6.508  10.373  0.00  0.00     0.042 A 
ATOM     16  H   UNK d   0      11.464  -6.188  11.672  0.00  0.00     0.166 HD
ATOM     17  C   UNK d   0      10.204  -6.532   9.050  0.00  0.00     0.062 C 
ATOM     18  C   UNK d   0       8.340  -6.696  10.593  0.00  0.00    -0.013 A 
ATOM     19  C   UNK d   0      11.099  -5.687   8.445  0.00  0.00     0.067 A 
ATOM     20  N   UNK d   0      11.763  -4.842   9.237  0.00  0.00    -0.248 NA
ATOM     21  C   UNK d   0      11.540  -5.434   7.083  0.00  0.00    -0.011 A 
ATOM     22  C   UNK d   0      12.606  -4.054   8.492  0.00  0.00     0.066 A 
ATOM     23  C   UNK d   0      13.389  -3.152   9.197  0.00  0.00     0.062 C 
ATOM     24  C   UNK d   0      12.420  -4.475   7.117  0.00  0.00    -0.020 A 
ATOM     25  C   UNK d   0      13.493  -3.006  10.589  0.00  0.00     0.041 A 
ATOM     26  N   UNK d   0      12.571  -3.056  11.558  0.00  0.00    -0.355 N 
ATOM     27  C   UNK d   0      14.769  -2.780  11.151  0.00  0.00    -0.022 A 
ATOM     28  C   UNK d   0      13.217  -2.874  12.720  0.00  0.00     0.042 A 
ATOM     29  H   UNK d   0      11.470  -3.193  11.421  0.00  0.00     0.166 HD
ATOM     30  C   UNK d   0      12.745  -2.839  14.042  0.00  0.00     0.062 C 
ATOM     31  C   UNK d   0      14.603  -2.696  12.499  0.00  0.00    -0.013 A 
ATOM     32  C   UNK d   0      11.778  -3.641  14.626  0.00  0.00     0.066 A 
BRANCH   8  33
ATOM     33  C   UNK d   0       9.524  -5.216  17.067  0.00  0.00     0.151 C 
BRANCH  33  34
ATOM     34  C   UNK d   0       9.582  -6.681  17.219  0.00  0.00     0.143 C 
ATOM     35  O   UNK d   0      10.664  -7.261  17.384  0.00  0.00    -0.650 OA
BRANCH  34  36
ATOM     36  O   UNK d   0       8.417  -7.411  17.174  0.00  0.00    -0.776 OA
ATOM     37  H   UNK d   0       7.575  -7.107  17.683  0.00  0.00     0.167 HD
ENDBRANCH  34  36
ENDBRANCH  33  34
ENDBRANCH   8  33
BRANCH  31  38
ATOM     38  C   UNK d   0      15.695  -2.474  13.519  0.00  0.00     0.151 C 
BRANCH  38  39
ATOM     39  C   UNK d   0      15.975  -1.072  13.745  0.00  0.00     0.143 C 
ATOM     40  O   UNK d   0      15.202  -0.171  13.377  0.00  0.00    -0.650 OA
BRANCH  39  41
ATOM     41  O   UNK d   0      17.151  -0.704  14.399  0.00  0.00    -0.776 OA
ATOM     42  H   UNK d   0      17.062  -0.025  15.161  0.00  0.00     0.167 HD
ENDBRANCH  39  41
ENDBRANCH  38  39
ENDBRANCH  31  38
BRANCH  27  43
ATOM     43  C   UNK d   0      16.106  -2.643  10.467  0.00  0.00     0.052 C 
BRANCH  43  44
ATOM     44  C   UNK d   0      16.424  -1.239  10.067  0.00  0.00     0.115 C 
BRANCH  44  45
ATOM     45  C   UNK d   0      17.559  -1.316   9.111  0.00  0.00     0.139 C 
ATOM     46  O   UNK d   0      17.550  -2.237   8.257  0.00  0.00    -0.650 OA
BRANCH  45  47
ATOM     47  O   UNK d   0      18.607  -0.422   9.120  0.00  0.00    -0.776 OA
ATOM     48  H   UNK d   0      18.484   0.588   8.941  0.00  0.00     0.167 HD
ENDBRANCH  45  47
ENDBRANCH  44  45
ENDBRANCH  43  44
ENDBRANCH  27  43
BRANCH  24  49
ATOM     49  C   UNK d   0      13.153  -3.928   5.963  0.00  0.00     0.052 C 
BRANCH  49  50
ATOM     50  C   UNK d   0      12.458  -2.701   5.433  0.00  0.00     0.115 C 
BRANCH  50  51
ATOM     51  C   UNK d   0      11.957  -2.758   4.066  0.00  0.00     0.139 C 
ATOM     52  O   UNK d   0      12.530  -2.181   3.112  0.00  0.00    -0.650 OA
BRANCH  51  53
ATOM     53  O   UNK d   0      10.802  -3.472   3.788  0.00  0.00    -0.776 OA
ATOM     54  H   UNK d   0       9.963  -3.233   4.287  0.00  0.00     0.167 HD
ENDBRANCH  51  53
ENDBRANCH  50  51
ENDBRANCH  49  50
ENDBRANCH  24  49
BRANCH  21  55
ATOM     55  C   UNK d   0      11.041  -6.181   5.891  0.00  0.00     0.151 C 
BRANCH  55  56
ATOM     56  C   UNK d   0      11.101  -7.638   6.088  0.00  0.00     0.143 C 
ATOM     57  O   UNK d   0      12.150  -8.234   6.400  0.00  0.00    -0.650 OA
BRANCH  56  58
ATOM     58  O   UNK d   0       9.924  -8.365   5.915  0.00  0.00    -0.776 OA
ATOM     59  H   UNK d   0      10.056  -9.332   5.568  0.00  0.00     0.167 HD
ENDBRANCH  56  58
ENDBRANCH  55  56
ENDBRANCH  21  55
BRANCH  18  60
ATOM     60  C   UNK d   0       7.230  -6.922   9.597  0.00  0.00     0.151 C 
BRANCH  60  61
ATOM     61  C   UNK d   0       7.544  -8.191   8.923  0.00  0.00     0.143 C 
ATOM     62  O   UNK d   0       7.717  -8.368   7.717  0.00  0.00    -0.650 OA
BRANCH  61  63
ATOM     63  O   UNK d   0       7.655  -9.315   9.777  0.00  0.00    -0.776 OA
ATOM     64  H   UNK d   0       7.627  -9.212  10.776  0.00  0.00     0.167 HD
ENDBRANCH  61  63
ENDBRANCH  60  61
ENDBRANCH  18  60
BRANCH  14  65
ATOM     65  C   UNK d   0       6.846  -6.885  12.607  0.00  0.00     0.052 C 
BRANCH  65  66
ATOM     66  C   UNK d   0       6.553  -8.333  12.783  0.00  0.00     0.115 C 
BRANCH  66  67
ATOM     67  C   UNK d   0       7.153  -9.053  13.871  0.00  0.00     0.139 C 
ATOM     68  O   UNK d   0       6.980  -8.613  15.067  0.00  0.00    -0.650 OA
BRANCH  67  69
ATOM     69  O   UNK d   0       7.928 -10.210  13.805  0.00  0.00    -0.776 OA
ATOM     70  H   UNK d   0       8.324 -10.535  14.699  0.00  0.00     0.167 HD
ENDBRANCH  67  69
ENDBRANCH  66  67
ENDBRANCH  65  66
ENDBRANCH  14  65
ENDBRANCH   6   7
ENDBRANCH   5   6
ENDBRANCH   2   5
TORSDOF 28
ENDMDL
MODEL 7
REMARK VINA RESULT:      -8.8     29.230     32.369
REMARK  28 active torsions:
REMARK  status: ('A' for Active; 'I' for Inactive)
REMARK    1  A    between atoms: C_2  and  O_3 
REMARK    2  A    between atoms: C_2  and  C_4 
REMARK    3  A    between atoms: C_4  and  C_5 
REMARK    4  A    between atoms: C_5  and  C_6 
REMARK    5  A    between atoms: C_7  and  C_8 
REMARK    6  A    between atoms: C_8  and  C_9 
REMARK    7  A    between atoms: C_9  and  O_11 
REMARK    8  A    between atoms: C_28  and  C_29 
REMARK    9  A    between atoms: C_29  and  C_30 
REMARK   10  A    between atoms: C_30  and  O_32 
REMARK   11  A    between atoms: C_33  and  C_34 
REMARK   12  A    between atoms: C_34  and  C_35 
REMARK   13  A    between atoms: C_35  and  C_36 
REMARK   14  A    between atoms: C_36  and  O_38 
REMARK   15  A    between atoms: C_39  and  C_40 
REMARK   16  A    between atoms: C_40  and  C_41 
REMARK   17  A    between atoms: C_41  and  C_42 
REMARK   18  A    between atoms: C_42  and  O_44 
REMARK   19  A    between atoms: C_45  and  C_46 
REMARK   20  A    between atoms: C_46  and  C_47 
REMARK   21  A    between atoms: C_47  and  O_49 
REMARK   22  A    between atoms: C_50  and  C_51 
REMARK   23  A    between atoms: C_51  and  C_52 
REMARK   24  A    between atoms: C_52  and  O_54 
REMARK   25  A    between atoms: C_55  and  C_56 
REMARK   26  A    between atoms: C_56  and  C_57 
REMARK   27  A    between atoms: C_57  and  C_58 
REMARK   28  A    between atoms: C_58  and  O_60 
ROOT
ATOM      1  O   UNK d   0     -17.600  -5.749  -6.037  0.00  0.00    -0.650 OA
ATOM      2  C   UNK d   0     -16.379  -5.482  -5.986  0.00  0.00     0.139 C 
ENDROOT
BRANCH   2   3
ATOM      3  O   UNK d   0     -15.462  -6.468  -6.259  0.00  0.00    -0.776 OA
ATOM      4  H   UNK d   0     -14.699  -6.673  -5.611  0.00  0.00     0.167 HD
ENDBRANCH   2   3
BRANCH   2   5
ATOM      5  C   UNK d   0     -15.928  -4.106  -5.632  0.00  0.00     0.115 C 
BRANCH   5   6
ATOM      6  C   UNK d   0     -16.391  -3.125  -6.675  0.00  0.00     0.052 C 
BRANCH   6   7
ATOM      7  C   UNK d   0     -15.260  -2.299  -7.239  0.00  0.00    -0.020 A 
ATOM      8  C   UNK d   0     -14.444  -2.620  -8.210  0.00  0.00    -0.011 A 
ATOM      9  C   UNK d   0     -13.517  -1.516  -8.396  0.00  0.00     0.067 A 
ATOM     10  C   UNK d   0     -12.447  -1.226  -9.256  0.00  0.00     0.062 C 
ATOM     11  N   UNK d   0     -13.837  -0.568  -7.491  0.00  0.00    -0.248 NA
ATOM     12  C   UNK d   0     -11.844   0.018  -9.469  0.00  0.00     0.041 A 
ATOM     13  N   UNK d   0     -11.485   0.988  -8.607  0.00  0.00    -0.355 N 
ATOM     14  C   UNK d   0     -11.580   0.429 -10.789  0.00  0.00    -0.022 A 
ATOM     15  C   UNK d   0     -11.008   2.008  -9.346  0.00  0.00     0.042 A 
ATOM     16  H   UNK d   0     -11.550   0.946  -7.498  0.00  0.00     0.166 HD
ATOM     17  C   UNK d   0     -10.499   3.262  -8.952  0.00  0.00     0.062 C 
ATOM     18  C   UNK d   0     -11.052   1.695 -10.718  0.00  0.00    -0.013 A 
ATOM     19  C   UNK d   0     -10.997   4.142  -8.026  0.00  0.00     0.067 A 
ATOM     20  N   UNK d   0     -11.980   3.699  -7.238  0.00  0.00    -0.248 NA
ATOM     21  C   UNK d   0     -10.739   5.523  -7.653  0.00  0.00    -0.011 A 
ATOM     22  C   UNK d   0     -12.384   4.690  -6.377  0.00  0.00     0.066 A 
ATOM     23  C   UNK d   0     -13.379   4.352  -5.472  0.00  0.00     0.062 C 
ATOM     24  C   UNK d   0     -11.557   5.839  -6.690  0.00  0.00    -0.020 A 
ATOM     25  C   UNK d   0     -13.963   3.092  -5.265  0.00  0.00     0.041 A 
ATOM     26  N   UNK d   0     -14.333   2.134  -6.123  0.00  0.00    -0.355 N 
ATOM     27  C   UNK d   0     -14.223   2.678  -3.940  0.00  0.00    -0.022 A 
ATOM     28  C   UNK d   0     -14.818   1.119  -5.389  0.00  0.00     0.042 A 
ATOM     29  H   UNK d   0     -14.277   2.182  -7.238  0.00  0.00     0.166 HD
ATOM     30  C   UNK d   0     -15.335  -0.129  -5.768  0.00  0.00     0.062 C 
ATOM     31  C   UNK d   0     -14.764   1.431  -4.010  0.00  0.00    -0.013 A 
ATOM     32  C   UNK d   0     -14.878  -0.977  -6.764  0.00  0.00     0.066 A 
BRANCH   8  33
ATOM     33  C   UNK d   0     -14.443  -3.873  -8.987  0.00  0.00     0.151 C 
BRANCH  33  34
ATOM     34  C   UNK d   0     -13.436  -4.839  -8.512  0.00  0.00     0.143 C 
ATOM     35  O   UNK d   0     -12.881  -5.619  -9.298  0.00  0.00    -0.650 OA
BRANCH  34  36
ATOM     36  O   UNK d   0     -13.111  -4.873  -7.175  0.00  0.00    -0.776 OA
ATOM     37  H   UNK d   0     -12.201  -5.232  -6.856  0.00  0.00     0.167 HD
ENDBRANCH  34  36
ENDBRANCH  33  34
ENDBRANCH   8  33
BRANCH  31  38
ATOM     38  C   UNK d   0     -15.191   0.579  -2.838  0.00  0.00     0.151 C 
BRANCH  38  39
ATOM     39  C   UNK d   0     -14.080  -0.094  -2.197  0.00  0.00     0.143 C 
ATOM     40  O   UNK d   0     -13.779   0.105  -1.007  0.00  0.00    -0.650 OA
BRANCH  39  41
ATOM     41  O   UNK d   0     -13.313  -0.999  -2.929  0.00  0.00    -0.776 OA
ATOM     42  H   UNK d   0     -12.741  -0.613  -3.687  0.00  0.00     0.167 HD
ENDBRANCH  39  41
ENDBRANCH  38  39
ENDBRANCH  31  38
BRANCH  27  43
ATOM     43  C   UNK d   0     -13.985   3.410  -2.643  0.00  0.00     0.052 C 
BRANCH  43  44
ATOM     44  C   UNK d   0     -15.111   4.315  -2.260  0.00  0.00     0.115 C 
BRANCH  44  45
ATOM     45  C   UNK d   0     -15.265   4.199  -0.786  0.00  0.00     0.139 C 
ATOM     46  O   UNK d   0     -14.447   4.810  -0.055  0.00  0.00    -0.650 OA
BRANCH  45  47
ATOM     47  O   UNK d   0     -16.266   3.458  -0.196  0.00  0.00    -0.776 OA
ATOM     48  H   UNK d   0     -16.263   2.425  -0.178  0.00  0.00     0.167 HD
ENDBRANCH  45  47
ENDBRANCH  44  45
ENDBRANCH  43  44
ENDBRANCH  27  43
BRANCH  24  49
ATOM     49  C   UNK d   0     -11.613   7.131  -5.987  0.00  0.00     0.052 C 
BRANCH  49  50
ATOM     50  C   UNK d   0     -12.115   8.211  -6.911  0.00  0.00     0.115 C 
BRANCH  50  51
ATOM     51  C   UNK d   0     -13.394   7.980  -7.569  0.00  0.00     0.139 C 
ATOM     52  O   UNK d   0     -14.410   7.580  -6.952  0.00  0.00    -0.650 OA
BRANCH  51  53
ATOM     53  O   UNK d   0     -13.514   8.203  -8.932  0.00  0.00    -0.776 OA
ATOM     54  H   UNK d   0     -13.170   7.499  -9.561  0.00  0.00     0.167 HD
ENDBRANCH  51  53
ENDBRANCH  50  51
ENDBRANCH  49  50
ENDBRANCH  24  49
BRANCH  21  55
ATOM     55  C   UNK d   0      -9.700   6.381  -8.294  0.00  0.00     0.151 C 
BRANCH  55  56
ATOM     56  C   UNK d   0      -8.388   6.236  -7.644  0.00  0.00     0.143 C 
ATOM     57  O   UNK d   0      -8.032   6.940  -6.678  0.00  0.00    -0.650 OA
BRANCH  56  58
ATOM     58  O   UNK d   0      -7.520   5.267  -8.142  0.00  0.00    -0.776 OA
ATOM     59  H   UNK d   0      -7.225   5.410  -9.125  0.00  0.00     0.167 HD
ENDBRANCH  56  58
ENDBRANCH  55  56
ENDBRANCH  21  55
BRANCH  18  60
ATOM     60  C   UNK d   0     -10.630   2.522 -11.907  0.00  0.00     0.151 C 
BRANCH  60  61
ATOM     61  C   UNK d   0      -9.204   2.231 -12.117  0.00  0.00     0.143 C 
ATOM     62  O   UNK d   0      -8.265   2.551 -11.387  0.00  0.00    -0.650 OA
BRANCH  61  63
ATOM     63  O   UNK d   0      -8.905   1.500 -13.292  0.00  0.00    -0.776 OA
ATOM     64  H   UNK d   0      -8.579   1.964 -14.122  0.00  0.00     0.167 HD
ENDBRANCH  61  63
ENDBRANCH  60  61
ENDBRANCH  18  60
BRANCH  14  65
ATOM     65  C   UNK d   0     -11.696  -0.313 -12.089  0.00  0.00     0.052 C 
BRANCH  65  66
ATOM     66  C   UNK d   0     -12.903   0.067 -12.871  0.00  0.00     0.115 C 
BRANCH  66  67
ATOM     67  C   UNK d   0     -14.126   0.378 -12.185  0.00  0.00     0.139 C 
ATOM     68  O   UNK d   0     -14.461   1.613 -12.057  0.00  0.00    -0.650 OA
BRANCH  67  69
ATOM     69  O   UNK d   0     -15.034  -0.513 -11.614  0.00  0.00    -0.776 OA
ATOM     70  H   UNK d   0     -15.162  -0.432 -10.595  0.00  0.00     0.167 HD
ENDBRANCH  67  69
ENDBRANCH  66  67
ENDBRANCH  65  66
ENDBRANCH  14  65
ENDBRANCH   6   7
ENDBRANCH   5   6
ENDBRANCH   2   5
TORSDOF 28
ENDMDL
MODEL 8
REMARK VINA RESULT:      -8.8      1.760      9.719
REMARK  28 active torsions:
REMARK  status: ('A' for Active; 'I' for Inactive)
REMARK    1  A    between atoms: C_2  and  O_3 
REMARK    2  A    between atoms: C_2  and  C_4 
REMARK    3  A    between atoms: C_4  and  C_5 
REMARK    4  A    between atoms: C_5  and  C_6 
REMARK    5  A    between atoms: C_7  and  C_8 
REMARK    6  A    between atoms: C_8  and  C_9 
REMARK    7  A    between atoms: C_9  and  O_11 
REMARK    8  A    between atoms: C_28  and  C_29 
REMARK    9  A    between atoms: C_29  and  C_30 
REMARK   10  A    between atoms: C_30  and  O_32 
REMARK   11  A    between atoms: C_33  and  C_34 
REMARK   12  A    between atoms: C_34  and  C_35 
REMARK   13  A    between atoms: C_35  and  C_36 
REMARK   14  A    between atoms: C_36  and  O_38 
REMARK   15  A    between atoms: C_39  and  C_40 
REMARK   16  A    between atoms: C_40  and  C_41 
REMARK   17  A    between atoms: C_41  and  C_42 
REMARK   18  A    between atoms: C_42  and  O_44 
REMARK   19  A    between atoms: C_45  and  C_46 
REMARK   20  A    between atoms: C_46  and  C_47 
REMARK   21  A    between atoms: C_47  and  O_49 
REMARK   22  A    between atoms: C_50  and  C_51 
REMARK   23  A    between atoms: C_51  and  C_52 
REMARK   24  A    between atoms: C_52  and  O_54 
REMARK   25  A    between atoms: C_55  and  C_56 
REMARK   26  A    between atoms: C_56  and  C_57 
REMARK   27  A    between atoms: C_57  and  C_58 
REMARK   28  A    between atoms: C_58  and  O_60 
ROOT
ATOM      1  O   UNK d   0      10.437  -6.136  16.283  0.00  0.00    -0.650 OA
ATOM      2  C   UNK d   0       9.737  -5.105  16.400  0.00  0.00     0.139 C 
ENDROOT
BRANCH   2   3
ATOM      3  O   UNK d   0       8.415  -5.226  16.753  0.00  0.00    -0.776 OA
ATOM      4  H   UNK d   0       8.107  -5.047  17.711  0.00  0.00     0.167 HD
ENDBRANCH   2   3
BRANCH   2   5
ATOM      5  C   UNK d   0      10.336  -3.762  16.156  0.00  0.00     0.115 C 
BRANCH   5   6
ATOM      6  C   UNK d   0      11.765  -3.907  15.707  0.00  0.00     0.052 C 
BRANCH   6   7
ATOM      7  C   UNK d   0      11.994  -3.363  14.317  0.00  0.00    -0.020 A 
ATOM      8  C   UNK d   0      12.566  -2.234  13.986  0.00  0.00    -0.011 A 
ATOM      9  C   UNK d   0      12.552  -2.136  12.536  0.00  0.00     0.067 A 
ATOM     10  C   UNK d   0      13.010  -1.218  11.578  0.00  0.00     0.062 C 
ATOM     11  N   UNK d   0      11.949  -3.248  12.065  0.00  0.00    -0.248 NA
ATOM     12  C   UNK d   0      13.155  -1.429  10.202  0.00  0.00     0.041 A 
ATOM     13  N   UNK d   0      12.354  -2.044   9.311  0.00  0.00    -0.355 N 
ATOM     14  C   UNK d   0      14.337  -1.005   9.569  0.00  0.00    -0.022 A 
ATOM     15  C   UNK d   0      13.001  -2.027   8.131  0.00  0.00     0.042 A 
ATOM     16  H   UNK d   0      11.343  -2.464   9.508  0.00  0.00     0.166 HD
ATOM     17  C   UNK d   0      12.618  -2.530   6.871  0.00  0.00     0.062 C 
ATOM     18  C   UNK d   0      14.248  -1.384   8.253  0.00  0.00    -0.013 A 
ATOM     19  C   UNK d   0      12.048  -3.739   6.563  0.00  0.00     0.067 A 
ATOM     20  N   UNK d   0      11.607  -4.478   7.584  0.00  0.00    -0.248 NA
ATOM     21  C   UNK d   0      11.789  -4.491   5.346  0.00  0.00    -0.011 A 
ATOM     22  C   UNK d   0      11.080  -5.660   7.124  0.00  0.00     0.066 A 
ATOM     23  C   UNK d   0      10.548  -6.512   8.081  0.00  0.00     0.062 C 
ATOM     24  C   UNK d   0      11.226  -5.616   5.682  0.00  0.00    -0.020 A 
ATOM     25  C   UNK d   0      10.401  -6.275   9.456  0.00  0.00     0.041 A 
ATOM     26  N   UNK d   0      11.203  -5.677  10.345  0.00  0.00    -0.355 N 
ATOM     27  C   UNK d   0       9.212  -6.697  10.090  0.00  0.00    -0.022 A 
ATOM     28  C   UNK d   0      10.563  -5.700  11.525  0.00  0.00     0.042 A 
ATOM     29  H   UNK d   0      12.223  -5.265  10.148  0.00  0.00     0.166 HD
ATOM     30  C   UNK d   0      10.937  -5.213  12.787  0.00  0.00     0.062 C 
ATOM     31  C   UNK d   0       9.306  -6.337  11.399  0.00  0.00    -0.013 A 
ATOM     32  C   UNK d   0      11.590  -4.027  13.087  0.00  0.00     0.066 A 
BRANCH   8  33
ATOM     33  C   UNK d   0      13.125  -1.223  14.902  0.00  0.00     0.151 C 
BRANCH  33  34
ATOM     34  C   UNK d   0      12.099  -0.312  15.442  0.00  0.00     0.143 C 
ATOM     35  O   UNK d   0      11.721  -0.404  16.618  0.00  0.00    -0.650 OA
BRANCH  34  36
ATOM     36  O   UNK d   0      11.553   0.651  14.625  0.00  0.00    -0.776 OA
ATOM     37  H   UNK d   0      11.112   1.495  15.014  0.00  0.00     0.167 HD
ENDBRANCH  34  36
ENDBRANCH  33  34
ENDBRANCH   8  33
BRANCH  31  38
ATOM     38  C   UNK d   0       8.261  -6.571  12.465  0.00  0.00     0.151 C 
BRANCH  38  39
ATOM     39  C   UNK d   0       8.350  -7.887  13.060  0.00  0.00     0.143 C 
ATOM     40  O   UNK d   0       7.356  -8.479  13.517  0.00  0.00    -0.650 OA
BRANCH  39  41
ATOM     41  O   UNK d   0       9.587  -8.527  13.128  0.00  0.00    -0.776 OA
ATOM     42  H   UNK d   0       9.851  -8.926  14.035  0.00  0.00     0.167 HD
ENDBRANCH  39  41
ENDBRANCH  38  39
ENDBRANCH  31  38
BRANCH  27  43
ATOM     43  C   UNK d   0       8.019  -7.416   9.509  0.00  0.00     0.052 C 
BRANCH  43  44
ATOM     44  C   UNK d   0       8.110  -8.902   9.629  0.00  0.00     0.115 C 
BRANCH  44  45
ATOM     45  C   UNK d   0       8.130  -9.439   8.243  0.00  0.00     0.139 C 
ATOM     46  O   UNK d   0       8.125  -8.619   7.291  0.00  0.00    -0.650 OA
BRANCH  45  47
ATOM     47  O   UNK d   0       8.159 -10.788   7.964  0.00  0.00    -0.776 OA
ATOM     48  H   UNK d   0       7.785 -11.502   8.610  0.00  0.00     0.167 HD
ENDBRANCH  45  47
ENDBRANCH  44  45
ENDBRANCH  43  44
ENDBRANCH  27  43
BRANCH  24  49
ATOM     49  C   UNK d   0      10.759  -6.664   4.757  0.00  0.00     0.052 C 
BRANCH  49  50
ATOM     50  C   UNK d   0      11.831  -7.705   4.560  0.00  0.00     0.115 C 
BRANCH  50  51
ATOM     51  C   UNK d   0      12.475  -7.758   3.255  0.00  0.00     0.139 C 
ATOM     52  O   UNK d   0      11.885  -7.434   2.197  0.00  0.00    -0.650 OA
BRANCH  51  53
ATOM     53  O   UNK d   0      13.791  -8.182   3.155  0.00  0.00    -0.776 OA
ATOM     54  H   UNK d   0      14.422  -7.646   2.586  0.00  0.00     0.167 HD
ENDBRANCH  51  53
ENDBRANCH  50  51
ENDBRANCH  49  50
ENDBRANCH  24  49
BRANCH  21  55
ATOM     55  C   UNK d   0      12.126  -4.006   3.976  0.00  0.00     0.151 C 
BRANCH  55  56
ATOM     56  C   UNK d   0      13.579  -3.917   3.765  0.00  0.00     0.143 C 
ATOM     57  O   UNK d   0      14.197  -2.834   3.771  0.00  0.00    -0.650 OA
BRANCH  56  58
ATOM     58  O   UNK d   0      14.278  -5.104   3.551  0.00  0.00    -0.776 OA
ATOM     59  H   UNK d   0      13.996  -5.892   4.161  0.00  0.00     0.167 HD
ENDBRANCH  56  58
ENDBRANCH  55  56
ENDBRANCH  21  55
BRANCH  18  60
ATOM     60  C   UNK d   0      15.308  -1.135   7.208  0.00  0.00     0.151 C 
BRANCH  60  61
ATOM     61  C   UNK d   0      14.842   0.023   6.429  0.00  0.00     0.143 C 
ATOM     62  O   UNK d   0      14.540   1.135   6.862  0.00  0.00    -0.650 OA
BRANCH  61  63
ATOM     63  O   UNK d   0      14.740  -0.192   5.034  0.00  0.00    -0.776 OA
ATOM     64  H   UNK d   0      15.343   0.288   4.390  0.00  0.00     0.167 HD
ENDBRANCH  61  63
ENDBRANCH  60  61
ENDBRANCH  18  60
BRANCH  14  65
ATOM     65  C   UNK d   0      15.488  -0.190  10.086  0.00  0.00     0.052 C 
BRANCH  65  66
ATOM     66  C   UNK d   0      16.628  -1.024  10.553  0.00  0.00     0.115 C 
BRANCH  66  67
ATOM     67  C   UNK d   0      17.649  -1.418   9.624  0.00  0.00     0.139 C 
ATOM     68  O   UNK d   0      17.647  -2.628   9.187  0.00  0.00    -0.650 OA
BRANCH  67  69
ATOM     69  O   UNK d   0      18.684  -0.637   9.110  0.00  0.00    -0.776 OA
ATOM     70  H   UNK d   0      18.876   0.240   9.615  0.00  0.00     0.167 HD
ENDBRANCH  67  69
ENDBRANCH  66  67
ENDBRANCH  65  66
ENDBRANCH  14  65
ENDBRANCH   6   7
ENDBRANCH   5   6
ENDBRANCH   2   5
TORSDOF 28
ENDMDL
MODEL 9
REMARK VINA RESULT:      -8.6      1.865      8.145
REMARK  28 active torsions:
REMARK  status: ('A' for Active; 'I' for Inactive)
REMARK    1  A    between atoms: C_2  and  O_3 
REMARK    2  A    between atoms: C_2  and  C_4 
REMARK    3  A    between atoms: C_4  and  C_5 
REMARK    4  A    between atoms: C_5  and  C_6 
REMARK    5  A    between atoms: C_7  and  C_8 
REMARK    6  A    between atoms: C_8  and  C_9 
REMARK    7  A    between atoms: C_9  and  O_11 
REMARK    8  A    between atoms: C_28  and  C_29 
REMARK    9  A    between atoms: C_29  and  C_30 
REMARK   10  A    between atoms: C_30  and  O_32 
REMARK   11  A    between atoms: C_33  and  C_34 
REMARK   12  A    between atoms: C_34  and  C_35 
REMARK   13  A    between atoms: C_35  and  C_36 
REMARK   14  A    between atoms: C_36  and  O_38 
REMARK   15  A    between atoms: C_39  and  C_40 
REMARK   16  A    between atoms: C_40  and  C_41 
REMARK   17  A    between atoms: C_41  and  C_42 
REMARK   18  A    between atoms: C_42  and  O_44 
REMARK   19  A    between atoms: C_45  and  C_46 
REMARK   20  A    between atoms: C_46  and  C_47 
REMARK   21  A    between atoms: C_47  and  O_49 
REMARK   22  A    between atoms: C_50  and  C_51 
REMARK   23  A    between atoms: C_51  and  C_52 
REMARK   24  A    between atoms: C_52  and  O_54 
REMARK   25  A    between atoms: C_55  and  C_56 
REMARK   26  A    between atoms: C_56  and  C_57 
REMARK   27  A    between atoms: C_57  and  C_58 
REMARK   28  A    between atoms: C_58  and  O_60 
ROOT
ATOM      1  O   UNK d   0       4.381  -8.218   9.994  0.00  0.00    -0.650 OA
ATOM      2  C   UNK d   0       4.983  -7.185  10.363  0.00  0.00     0.139 C 
ENDROOT
BRANCH   2   3
ATOM      3  O   UNK d   0       4.638  -5.973   9.816  0.00  0.00    -0.776 OA
ATOM      4  H   UNK d   0       5.352  -5.300   9.530  0.00  0.00     0.167 HD
ENDBRANCH   2   3
BRANCH   2   5
ATOM      5  C   UNK d   0       6.064  -7.274  11.385  0.00  0.00     0.115 C 
BRANCH   5   6
ATOM      6  C   UNK d   0       7.053  -8.341  11.001  0.00  0.00     0.052 C 
BRANCH   6   7
ATOM      7  C   UNK d   0       8.204  -7.800  10.185  0.00  0.00    -0.020 A 
ATOM      8  C   UNK d   0       8.556  -8.148   8.974  0.00  0.00    -0.011 A 
ATOM      9  C   UNK d   0       9.725  -7.364   8.609  0.00  0.00     0.067 A 
ATOM     10  C   UNK d   0      10.550  -7.243   7.480  0.00  0.00     0.062 C 
ATOM     11  N   UNK d   0      10.018  -6.569   9.659  0.00  0.00    -0.248 NA
ATOM     12  C   UNK d   0      11.470  -6.225   7.208  0.00  0.00     0.041 A 
ATOM     13  N   UNK d   0      12.368  -5.607   8.000  0.00  0.00    -0.355 N 
ATOM     14  C   UNK d   0      11.492  -5.652   5.924  0.00  0.00    -0.022 A 
ATOM     15  C   UNK d   0      12.953  -4.652   7.252  0.00  0.00     0.042 A 
ATOM     16  H   UNK d   0      12.597  -5.853   9.060  0.00  0.00     0.166 HD
ATOM     17  C   UNK d   0      13.957  -3.720   7.583  0.00  0.00     0.062 C 
ATOM     18  C   UNK d   0      12.429  -4.650   5.945  0.00  0.00    -0.013 A 
ATOM     19  C   UNK d   0      14.073  -2.939   8.704  0.00  0.00     0.067 A 
ATOM     20  N   UNK d   0      13.252  -3.214   9.721  0.00  0.00    -0.248 NA
ATOM     21  C   UNK d   0      14.891  -1.809   9.110  0.00  0.00    -0.011 A 
ATOM     22  C   UNK d   0      13.473  -2.345  10.761  0.00  0.00     0.066 A 
ATOM     23  C   UNK d   0      12.709  -2.543  11.902  0.00  0.00     0.062 C 
ATOM     24  C   UNK d   0      14.532  -1.463  10.312  0.00  0.00    -0.020 A 
ATOM     25  C   UNK d   0      11.800  -3.580  12.160  0.00  0.00     0.041 A 
ATOM     26  N   UNK d   0      10.897  -4.184  11.378  0.00  0.00    -0.355 N 
ATOM     27  C   UNK d   0      11.782  -4.157  13.448  0.00  0.00    -0.022 A 
ATOM     28  C   UNK d   0      10.306  -5.131  12.123  0.00  0.00     0.042 A 
ATOM     29  H   UNK d   0      10.661  -3.928  10.316  0.00  0.00     0.166 HD
ATOM     30  C   UNK d   0       9.300  -6.058  11.810  0.00  0.00     0.062 C 
ATOM     31  C   UNK d   0      10.840  -5.140  13.434  0.00  0.00    -0.013 A 
ATOM     32  C   UNK d   0       9.140  -6.783  10.640  0.00  0.00     0.066 A 
BRANCH   8  33
ATOM     33  C   UNK d   0       7.904  -9.155   8.117  0.00  0.00     0.151 C 
BRANCH  33  34
ATOM     34  C   UNK d   0       8.503 -10.495   8.255  0.00  0.00     0.143 C 
ATOM     35  O   UNK d   0       7.813 -11.517   8.132  0.00  0.00    -0.650 OA
BRANCH  34  36
ATOM     36  O   UNK d   0       9.847 -10.610   8.525  0.00  0.00    -0.776 OA
ATOM     37  H   UNK d   0      10.444  -9.777   8.631  0.00  0.00     0.167 HD
ENDBRANCH  34  36
ENDBRANCH  33  34
ENDBRANCH   8  33
BRANCH  31  38
ATOM     38  C   UNK d   0      10.477  -6.043  14.589  0.00  0.00     0.151 C 
BRANCH  38  39
ATOM     39  C   UNK d   0      11.337  -7.202  14.688  0.00  0.00     0.143 C 
ATOM     40  O   UNK d   0      12.181  -7.330  15.593  0.00  0.00    -0.650 OA
BRANCH  39  41
ATOM     41  O   UNK d   0      11.226  -8.221  13.742  0.00  0.00    -0.776 OA
ATOM     42  H   UNK d   0      10.573  -8.064  12.969  0.00  0.00     0.167 HD
ENDBRANCH  39  41
ENDBRANCH  38  39
ENDBRANCH  31  38
BRANCH  27  43
ATOM     43  C   UNK d   0      12.606  -3.813  14.664  0.00  0.00     0.052 C 
BRANCH  43  44
ATOM     44  C   UNK d   0      11.887  -2.938  15.638  0.00  0.00     0.115 C 
BRANCH  44  45
ATOM     45  C   UNK d   0      12.048  -1.542  15.153  0.00  0.00     0.139 C 
ATOM     46  O   UNK d   0      13.200  -1.042  15.162  0.00  0.00    -0.650 OA
BRANCH  45  47
ATOM     47  O   UNK d   0      10.993  -0.784  14.693  0.00  0.00    -0.776 OA
ATOM     48  H   UNK d   0      10.967  -0.378  13.744  0.00  0.00     0.167 HD
ENDBRANCH  45  47
ENDBRANCH  44  45
ENDBRANCH  43  44
ENDBRANCH  27  43
BRANCH  24  49
ATOM     49  C   UNK d   0      15.130  -0.387  11.122  0.00  0.00     0.052 C 
BRANCH  49  50
ATOM     50  C   UNK d   0      14.381   0.904  10.912  0.00  0.00     0.115 C 
BRANCH  50  51
ATOM     51  C   UNK d   0      13.812   1.542  12.092  0.00  0.00     0.139 C 
ATOM     52  O   UNK d   0      14.152   2.688  12.471  0.00  0.00    -0.650 OA
BRANCH  51  53
ATOM     53  O   UNK d   0      12.857   0.872  12.841  0.00  0.00    -0.776 OA
ATOM     54  H   UNK d   0      12.868  -0.133  12.836  0.00  0.00     0.167 HD
ENDBRANCH  51  53
ENDBRANCH  50  51
ENDBRANCH  49  50
ENDBRANCH  24  49
BRANCH  21  55
ATOM     55  C   UNK d   0      15.950  -1.195   8.255  0.00  0.00     0.151 C 
BRANCH  55  56
ATOM     56  C   UNK d   0      17.295  -1.663   8.621  0.00  0.00     0.143 C 
ATOM     57  O   UNK d   0      17.504  -2.776   9.142  0.00  0.00    -0.650 OA
BRANCH  56  58
ATOM     58  O   UNK d   0      18.370  -0.812   8.368  0.00  0.00    -0.776 OA
ATOM     59  H   UNK d   0      19.287  -1.284   8.273  0.00  0.00     0.167 HD
ENDBRANCH  56  58
ENDBRANCH  55  56
ENDBRANCH  21  55
BRANCH  18  60
ATOM     60  C   UNK d   0      12.774  -3.764   4.773  0.00  0.00     0.151 C 
BRANCH  60  61
ATOM     61  C   UNK d   0      11.645  -2.834   4.623  0.00  0.00     0.143 C 
ATOM     62  O   UNK d   0      11.360  -1.889   5.359  0.00  0.00    -0.650 OA
BRANCH  61  63
ATOM     63  O   UNK d   0      10.812  -3.073   3.504  0.00  0.00    -0.776 OA
ATOM     64  H   UNK d   0      10.753  -2.412   2.750  0.00  0.00     0.167 HD
ENDBRANCH  61  63
ENDBRANCH  60  61
ENDBRANCH  18  60
BRANCH  14  65
ATOM     65  C   UNK d   0      10.772  -6.042   4.664  0.00  0.00     0.052 C 
BRANCH  65  66
ATOM     66  C   UNK d   0      11.543  -7.000   3.826  0.00  0.00     0.115 C 
BRANCH  66  67
ATOM     67  C   UNK d   0      11.902  -6.641   2.483  0.00  0.00     0.139 C 
ATOM     68  O   UNK d   0      12.488  -7.520   1.749  0.00  0.00    -0.650 OA
BRANCH  67  69
ATOM     69  O   UNK d   0      11.694  -5.421   1.841  0.00  0.00    -0.776 OA
ATOM     70  H   UNK d   0      10.710  -5.154   1.694  0.00  0.00     0.167 HD
ENDBRANCH  67  69
ENDBRANCH  66  67
ENDBRANCH  65  66
ENDBRANCH  14  65
ENDBRANCH   6   7
ENDBRANCH   5   6
ENDBRANCH   2   5
TORSDOF 28
ENDMDL
MODEL 10
REMARK VINA RESULT:      -8.5      1.692      8.080
REMARK  28 active torsions:
REMARK  status: ('A' for Active; 'I' for Inactive)
REMARK    1  A    between atoms: C_2  and  O_3 
REMARK    2  A    between atoms: C_2  and  C_4 
REMARK    3  A    between atoms: C_4  and  C_5 
REMARK    4  A    between atoms: C_5  and  C_6 
REMARK    5  A    between atoms: C_7  and  C_8 
REMARK    6  A    between atoms: C_8  and  C_9 
REMARK    7  A    between atoms: C_9  and  O_11 
REMARK    8  A    between atoms: C_28  and  C_29 
REMARK    9  A    between atoms: C_29  and  C_30 
REMARK   10  A    between atoms: C_30  and  O_32 
REMARK   11  A    between atoms: C_33  and  C_34 
REMARK   12  A    between atoms: C_34  and  C_35 
REMARK   13  A    between atoms: C_35  and  C_36 
REMARK   14  A    between atoms: C_36  and  O_38 
REMARK   15  A    between atoms: C_39  and  C_40 
REMARK   16  A    between atoms: C_40  and  C_41 
REMARK   17  A    between atoms: C_41  and  C_42 
REMARK   18  A    between atoms: C_42  and  O_44 
REMARK   19  A    between atoms: C_45  and  C_46 
REMARK   20  A    between atoms: C_46  and  C_47 
REMARK   21  A    between atoms: C_47  and  O_49 
REMARK   22  A    between atoms: C_50  and  C_51 
REMARK   23  A    between atoms: C_51  and  C_52 
REMARK   24  A    between atoms: C_52  and  O_54 
REMARK   25  A    between atoms: C_55  and  C_56 
REMARK   26  A    between atoms: C_56  and  C_57 
REMARK   27  A    between atoms: C_57  and  C_58 
REMARK   28  A    between atoms: C_58  and  O_60 
ROOT
ATOM      1  O   UNK d   0      12.478  -7.467   4.188  0.00  0.00    -0.650 OA
ATOM      2  C   UNK d   0      11.241  -7.389   4.014  0.00  0.00     0.139 C 
ENDROOT
BRANCH   2   3
ATOM      3  O   UNK d   0      10.731  -7.503   2.744  0.00  0.00    -0.776 OA
ATOM      4  H   UNK d   0      10.710  -6.701   2.110  0.00  0.00     0.167 HD
ENDBRANCH   2   3
BRANCH   2   5
ATOM      5  C   UNK d   0      10.335  -7.172   5.177  0.00  0.00     0.115 C 
BRANCH   5   6
ATOM      6  C   UNK d   0      10.562  -8.236   6.216  0.00  0.00     0.052 C 
BRANCH   6   7
ATOM      7  C   UNK d   0      10.390  -7.720   7.625  0.00  0.00    -0.020 A 
ATOM      8  C   UNK d   0       9.634  -8.216   8.570  0.00  0.00    -0.011 A 
ATOM      9  C   UNK d   0       9.787  -7.378   9.748  0.00  0.00     0.067 A 
ATOM     10  C   UNK d   0       9.286  -7.374  11.059  0.00  0.00     0.062 C 
ATOM     11  N   UNK d   0      10.651  -6.392   9.428  0.00  0.00    -0.248 NA
ATOM     12  C   UNK d   0       9.767  -6.637  12.147  0.00  0.00     0.041 A 
ATOM     13  N   UNK d   0      10.176  -5.357  12.240  0.00  0.00    -0.355 N 
ATOM     14  C   UNK d   0       9.935  -7.283  13.386  0.00  0.00    -0.022 A 
ATOM     15  C   UNK d   0      10.606  -5.177  13.503  0.00  0.00     0.042 A 
ATOM     16  H   UNK d   0      10.143  -4.592  11.434  0.00  0.00     0.166 HD
ATOM     17  C   UNK d   0      11.133  -4.032  14.133  0.00  0.00     0.062 C 
ATOM     18  C   UNK d   0      10.471  -6.362  14.251  0.00  0.00    -0.013 A 
ATOM     19  C   UNK d   0      12.071  -3.146  13.668  0.00  0.00     0.067 A 
ATOM     20  N   UNK d   0      12.404  -3.240  12.378  0.00  0.00    -0.248 NA
ATOM     21  C   UNK d   0      12.865  -2.071  14.238  0.00  0.00    -0.011 A 
ATOM     22  C   UNK d   0      13.359  -2.304  12.064  0.00  0.00     0.066 A 
ATOM     23  C   UNK d   0      13.771  -2.265  10.740  0.00  0.00     0.062 C 
ATOM     24  C   UNK d   0      13.620  -1.585  13.295  0.00  0.00    -0.020 A 
ATOM     25  C   UNK d   0      13.266  -3.005   9.659  0.00  0.00     0.041 A 
ATOM     26  N   UNK d   0      12.873  -4.281   9.563  0.00  0.00    -0.355 N 
ATOM     27  C   UNK d   0      13.094  -2.355   8.418  0.00  0.00    -0.022 A 
ATOM     28  C   UNK d   0      12.452  -4.466   8.302  0.00  0.00     0.042 A 
ATOM     29  H   UNK d   0      12.917  -5.052  10.371  0.00  0.00     0.166 HD
ATOM     30  C   UNK d   0      11.935  -5.601   7.659  0.00  0.00     0.062 C 
ATOM     31  C   UNK d   0      12.579  -3.271   7.554  0.00  0.00    -0.013 A 
ATOM     32  C   UNK d   0      11.051  -6.541   8.165  0.00  0.00     0.066 A 
BRANCH   8  33
ATOM     33  C   UNK d   0       8.768  -9.407   8.478  0.00  0.00     0.151 C 
BRANCH  33  34
ATOM     34  C   UNK d   0       7.350  -9.102   8.737  0.00  0.00     0.143 C 
ATOM     35  O   UNK d   0       6.893  -7.969   8.528  0.00  0.00    -0.650 OA
BRANCH  34  36
ATOM     36  O   UNK d   0       6.524 -10.091   9.218  0.00  0.00    -0.776 OA
ATOM     37  H   UNK d   0       5.622 -10.300   8.769  0.00  0.00     0.167 HD
ENDBRANCH  34  36
ENDBRANCH  33  34
ENDBRANCH   8  33
BRANCH  31  38
ATOM     38  C   UNK d   0      12.216  -3.028   6.108  0.00  0.00     0.151 C 
BRANCH  38  39
ATOM     39  C   UNK d   0      13.302  -3.324   5.198  0.00  0.00     0.143 C 
ATOM     40  O   UNK d   0      14.183  -2.492   4.920  0.00  0.00    -0.650 OA
BRANCH  39  41
ATOM     41  O   UNK d   0      13.376  -4.584   4.605  0.00  0.00    -0.776 OA
ATOM     42  H   UNK d   0      13.299  -4.620   3.584  0.00  0.00     0.167 HD
ENDBRANCH  39  41
ENDBRANCH  38  39
ENDBRANCH  31  38
BRANCH  27  43
ATOM     43  C   UNK d   0      13.397  -0.928   8.033  0.00  0.00     0.052 C 
BRANCH  43  44
ATOM     44  C   UNK d   0      14.840  -0.693   7.725  0.00  0.00     0.115 C 
BRANCH  44  45
ATOM     45  C   UNK d   0      14.890   0.451   6.777  0.00  0.00     0.139 C 
ATOM     46  O   UNK d   0      14.401   1.547   7.146  0.00  0.00    -0.650 OA
BRANCH  45  47
ATOM     47  O   UNK d   0      15.452   0.357   5.522  0.00  0.00    -0.776 OA
ATOM     48  H   UNK d   0      14.957   0.645   4.663  0.00  0.00     0.167 HD
ENDBRANCH  45  47
ENDBRANCH  44  45
ENDBRANCH  43  44
ENDBRANCH  27  43
BRANCH  24  49
ATOM     49  C   UNK d   0      14.554  -0.454  13.427  0.00  0.00     0.052 C 
BRANCH  49  50
ATOM     50  C   UNK d   0      15.859  -0.919  14.020  0.00  0.00     0.115 C 
BRANCH  50  51
ATOM     51  C   UNK d   0      16.547  -2.010  13.343  0.00  0.00     0.139 C 
ATOM     52  O   UNK d   0      17.269  -1.831  12.333  0.00  0.00    -0.650 OA
BRANCH  51  53
ATOM     53  O   UNK d   0      16.409  -3.306  13.815  0.00  0.00    -0.776 OA
ATOM     54  H   UNK d   0      16.735  -4.060  13.236  0.00  0.00     0.167 HD
ENDBRANCH  51  53
ENDBRANCH  50  51
ENDBRANCH  49  50
ENDBRANCH  24  49
BRANCH  21  55
ATOM     55  C   UNK d   0      12.783  -1.638  15.664  0.00  0.00     0.151 C 
BRANCH  55  56
ATOM     56  C   UNK d   0      11.646  -0.736  15.903  0.00  0.00     0.143 C 
ATOM     57  O   UNK d   0      11.179  -0.524  17.039  0.00  0.00    -0.650 OA
BRANCH  56  58
ATOM     58  O   UNK d   0      11.079  -0.101  14.799  0.00  0.00    -0.776 OA
ATOM     59  H   UNK d   0      11.507   0.810  14.552  0.00  0.00     0.167 HD
ENDBRANCH  56  58
ENDBRANCH  55  56
ENDBRANCH  21  55
BRANCH  18  60
ATOM     60  C   UNK d   0      10.821  -6.633  15.693  0.00  0.00     0.151 C 
BRANCH  60  61
ATOM     61  C   UNK d   0      12.128  -7.308  15.671  0.00  0.00     0.143 C 
ATOM     62  O   UNK d   0      12.344  -8.513  15.808  0.00  0.00    -0.650 OA
BRANCH  61  63
ATOM     63  O   UNK d   0      13.242  -6.458  15.470  0.00  0.00    -0.776 OA
ATOM     64  H   UNK d   0      13.125  -5.528  15.107  0.00  0.00     0.167 HD
ENDBRANCH  61  63
ENDBRANCH  60  61
ENDBRANCH  18  60
BRANCH  14  65
ATOM     65  C   UNK d   0       9.539  -8.661  13.835  0.00  0.00     0.052 C 
BRANCH  65  66
ATOM     66  C   UNK d   0       8.312  -8.669  14.676  0.00  0.00     0.115 C 
BRANCH  66  67
ATOM     67  C   UNK d   0       8.389  -9.104  16.042  0.00  0.00     0.139 C 
ATOM     68  O   UNK d   0       7.342  -8.992  16.781  0.00  0.00    -0.650 OA
BRANCH  67  69
ATOM     69  O   UNK d   0       9.488  -9.652  16.703  0.00  0.00    -0.776 OA
ATOM     70  H   UNK d   0       9.898 -10.491  16.269  0.00  0.00     0.167 HD
ENDBRANCH  67  69
ENDBRANCH  66  67
ENDBRANCH  65  66
ENDBRANCH  14  65
ENDBRANCH   6   7
ENDBRANCH   5   6
ENDBRANCH   2   5
TORSDOF 28
ENDMDL
MODEL 11
REMARK VINA RESULT:      -8.5     30.584     33.332
REMARK  28 active torsions:
REMARK  status: ('A' for Active; 'I' for Inactive)
REMARK    1  A    between atoms: C_2  and  O_3 
REMARK    2  A    between atoms: C_2  and  C_4 
REMARK    3  A    between atoms: C_4  and  C_5 
REMARK    4  A    between atoms: C_5  and  C_6 
REMARK    5  A    between atoms: C_7  and  C_8 
REMARK    6  A    between atoms: C_8  and  C_9 
REMARK    7  A    between atoms: C_9  and  O_11 
REMARK    8  A    between atoms: C_28  and  C_29 
REMARK    9  A    between atoms: C_29  and  C_30 
REMARK   10  A    between atoms: C_30  and  O_32 
REMARK   11  A    between atoms: C_33  and  C_34 
REMARK   12  A    between atoms: C_34  and  C_35 
REMARK   13  A    between atoms: C_35  and  C_36 
REMARK   14  A    between atoms: C_36  and  O_38 
REMARK   15  A    between atoms: C_39  and  C_40 
REMARK   16  A    between atoms: C_40  and  C_41 
REMARK   17  A    between atoms: C_41  and  C_42 
REMARK   18  A    between atoms: C_42  and  O_44 
REMARK   19  A    between atoms: C_45  and  C_46 
REMARK   20  A    between atoms: C_46  and  C_47 
REMARK   21  A    between atoms: C_47  and  O_49 
REMARK   22  A    between atoms: C_50  and  C_51 
REMARK   23  A    between atoms: C_51  and  C_52 
REMARK   24  A    between atoms: C_52  and  O_54 
REMARK   25  A    between atoms: C_55  and  C_56 
REMARK   26  A    between atoms: C_56  and  C_57 
REMARK   27  A    between atoms: C_57  and  C_58 
REMARK   28  A    between atoms: C_58  and  O_60 
ROOT
ATOM      1  O   UNK d   0      -9.908   2.901 -14.008  0.00  0.00    -0.650 OA
ATOM      2  C   UNK d   0      -9.174   2.138 -13.341  0.00  0.00     0.139 C 
ENDROOT
BRANCH   2   3
ATOM      3  O   UNK d   0      -7.873   1.938 -13.738  0.00  0.00    -0.776 OA
ATOM      4  H   UNK d   0      -7.202   2.709 -13.754  0.00  0.00     0.167 HD
ENDBRANCH   2   3
BRANCH   2   5
ATOM      5  C   UNK d   0      -9.709   1.454 -12.130  0.00  0.00     0.115 C 
BRANCH   5   6
ATOM      6  C   UNK d   0     -11.038   2.046 -11.746  0.00  0.00     0.052 C 
BRANCH   6   7
ATOM      7  C   UNK d   0     -12.134   1.010 -11.668  0.00  0.00    -0.020 A 
ATOM      8  C   UNK d   0     -12.678   0.348 -12.656  0.00  0.00    -0.011 A 
ATOM      9  C   UNK d   0     -13.694  -0.529 -12.098  0.00  0.00     0.067 A 
ATOM     10  C   UNK d   0     -14.594  -1.484 -12.598  0.00  0.00     0.062 C 
ATOM     11  N   UNK d   0     -13.705  -0.331 -10.763  0.00  0.00    -0.248 NA
ATOM     12  C   UNK d   0     -15.310  -2.438 -11.867  0.00  0.00     0.041 A 
ATOM     13  N   UNK d   0     -15.973  -2.345 -10.699  0.00  0.00    -0.355 N 
ATOM     14  C   UNK d   0     -15.352  -3.763 -12.336  0.00  0.00    -0.022 A 
ATOM     15  C   UNK d   0     -16.427  -3.579 -10.410  0.00  0.00     0.042 A 
ATOM     16  H   UNK d   0     -16.132  -1.421 -10.100  0.00  0.00     0.166 HD
ATOM     17  C   UNK d   0     -17.178  -4.041  -9.311  0.00  0.00     0.062 C 
ATOM     18  C   UNK d   0     -16.057  -4.495 -11.413  0.00  0.00    -0.013 A 
ATOM     19  C   UNK d   0     -17.012  -3.771  -7.977  0.00  0.00     0.067 A 
ATOM     20  N   UNK d   0     -16.160  -2.792  -7.660  0.00  0.00    -0.248 NA
ATOM     21  C   UNK d   0     -17.534  -4.303  -6.730  0.00  0.00    -0.011 A 
ATOM     22  C   UNK d   0     -16.087  -2.647  -6.296  0.00  0.00     0.066 A 
ATOM     23  C   UNK d   0     -15.262  -1.635  -5.828  0.00  0.00     0.062 C 
ATOM     24  C   UNK d   0     -16.986  -3.644  -5.750  0.00  0.00    -0.020 A 
ATOM     25  C   UNK d   0     -14.561  -0.679  -6.579  0.00  0.00     0.041 A 
ATOM     26  N   UNK d   0     -13.890  -0.775  -7.733  0.00  0.00    -0.355 N 
ATOM     27  C   UNK d   0     -14.523   0.652  -6.110  0.00  0.00    -0.022 A 
ATOM     28  C   UNK d   0     -13.428   0.453  -8.019  0.00  0.00     0.042 A 
ATOM     29  H   UNK d   0     -13.721  -1.705  -8.328  0.00  0.00     0.166 HD
ATOM     30  C   UNK d   0     -12.672   0.925  -9.103  0.00  0.00     0.062 C 
ATOM     31  C   UNK d   0     -13.809   1.376  -7.016  0.00  0.00    -0.013 A 
ATOM     32  C   UNK d   0     -12.789   0.583 -10.441  0.00  0.00     0.066 A 
BRANCH   8  33
ATOM     33  C   UNK d   0     -12.341   0.458 -14.088  0.00  0.00     0.151 C 
BRANCH  33  34
ATOM     34  C   UNK d   0     -11.779  -0.788 -14.640  0.00  0.00     0.143 C 
ATOM     35  O   UNK d   0     -12.304  -1.346 -15.614  0.00  0.00    -0.650 OA
BRANCH  34  36
ATOM     36  O   UNK d   0     -10.658  -1.338 -14.062  0.00  0.00    -0.776 OA
ATOM     37  H   UNK d   0      -9.972  -1.862 -14.621  0.00  0.00     0.167 HD
ENDBRANCH  34  36
ENDBRANCH  33  34
ENDBRANCH   8  33
BRANCH  31  38
ATOM     38  C   UNK d   0     -13.516   2.856  -6.942  0.00  0.00     0.151 C 
BRANCH  38  39
ATOM     39  C   UNK d   0     -14.639   3.672  -7.352  0.00  0.00     0.143 C 
ATOM     40  O   UNK d   0     -15.228   3.497  -8.433  0.00  0.00    -0.650 OA
BRANCH  39  41
ATOM     41  O   UNK d   0     -15.087   4.693  -6.516  0.00  0.00    -0.776 OA
ATOM     42  H   UNK d   0     -14.896   4.587  -5.514  0.00  0.00     0.167 HD
ENDBRANCH  39  41
ENDBRANCH  38  39
ENDBRANCH  31  38
BRANCH  27  43
ATOM     43  C   UNK d   0     -15.125   1.246  -4.861  0.00  0.00     0.052 C 
BRANCH  43  44
ATOM     44  C   UNK d   0     -14.190   1.246  -3.696  0.00  0.00     0.115 C 
BRANCH  44  45
ATOM     45  C   UNK d   0     -13.959   2.669  -3.336  0.00  0.00     0.139 C 
ATOM     46  O   UNK d   0     -12.913   2.957  -2.704  0.00  0.00    -0.650 OA
BRANCH  45  47
ATOM     47  O   UNK d   0     -14.837   3.676  -3.672  0.00  0.00    -0.776 OA
ATOM     48  H   UNK d   0     -14.829   4.602  -3.215  0.00  0.00     0.167 HD
ENDBRANCH  45  47
ENDBRANCH  44  45
ENDBRANCH  43  44
ENDBRANCH  27  43
BRANCH  24  49
ATOM     49  C   UNK d   0     -17.261  -3.833  -4.315  0.00  0.00     0.052 C 
BRANCH  49  50
ATOM     50  C   UNK d   0     -18.594  -3.232  -3.953  0.00  0.00     0.115 C 
BRANCH  50  51
ATOM     51  C   UNK d   0     -18.778  -1.811  -4.220  0.00  0.00     0.139 C 
ATOM     52  O   UNK d   0     -19.593  -1.383  -5.071  0.00  0.00    -0.650 OA
BRANCH  51  53
ATOM     53  O   UNK d   0     -18.029  -0.879  -3.519  0.00  0.00    -0.776 OA
ATOM     54  H   UNK d   0     -18.376   0.062  -3.460  0.00  0.00     0.167 HD
ENDBRANCH  51  53
ENDBRANCH  50  51
ENDBRANCH  49  50
ENDBRANCH  24  49
BRANCH  21  55
ATOM     55  C   UNK d   0     -18.531  -5.412  -6.648  0.00  0.00     0.151 C 
BRANCH  55  56
ATOM     56  C   UNK d   0     -17.883  -6.727  -6.524  0.00  0.00     0.143 C 
ATOM     57  O   UNK d   0     -18.394  -7.675  -5.895  0.00  0.00    -0.650 OA
BRANCH  56  58
ATOM     58  O   UNK d   0     -16.647  -6.902  -7.143  0.00  0.00    -0.776 OA
ATOM     59  H   UNK d   0     -16.546  -7.786  -7.675  0.00  0.00     0.167 HD
ENDBRANCH  56  58
ENDBRANCH  55  56
ENDBRANCH  21  55
BRANCH  18  60
ATOM     60  C   UNK d   0     -16.338  -5.974 -11.514  0.00  0.00     0.151 C 
BRANCH  60  61
ATOM     61  C   UNK d   0     -15.315  -6.636 -10.691  0.00  0.00     0.143 C 
ATOM     62  O   UNK d   0     -14.112  -6.376 -10.649  0.00  0.00    -0.650 OA
BRANCH  61  63
ATOM     63  O   UNK d   0     -15.791  -7.683  -9.865  0.00  0.00    -0.776 OA
ATOM     64  H   UNK d   0     -16.233  -8.495 -10.260  0.00  0.00     0.167 HD
ENDBRANCH  61  63
ENDBRANCH  60  61
ENDBRANCH  18  60
BRANCH  14  65
ATOM     65  C   UNK d   0     -14.866  -4.364 -13.624  0.00  0.00     0.052 C 
BRANCH  65  66
ATOM     66  C   UNK d   0     -13.395  -4.239 -13.806  0.00  0.00     0.115 C 
BRANCH  66  67
ATOM     67  C   UNK d   0     -12.556  -5.392 -13.632  0.00  0.00     0.139 C 
ATOM     68  O   UNK d   0     -11.281  -5.236 -13.684  0.00  0.00    -0.650 OA
BRANCH  67  69
ATOM     69  O   UNK d   0     -12.952  -6.709 -13.408  0.00  0.00    -0.776 OA
ATOM     70  H   UNK d   0     -12.722  -7.380 -14.155  0.00  0.00     0.167 HD
ENDBRANCH  67  69
ENDBRANCH  66  67
ENDBRANCH  65  66
ENDBRANCH  14  65
ENDBRANCH   6   7
ENDBRANCH   5   6
ENDBRANCH   2   5
TORSDOF 28
ENDMDL
MODEL 12
REMARK VINA RESULT:      -8.4      1.893      8.227
REMARK  28 active torsions:
REMARK  status: ('A' for Active; 'I' for Inactive)
REMARK    1  A    between atoms: C_2  and  O_3 
REMARK    2  A    between atoms: C_2  and  C_4 
REMARK    3  A    between atoms: C_4  and  C_5 
REMARK    4  A    between atoms: C_5  and  C_6 
REMARK    5  A    between atoms: C_7  and  C_8 
REMARK    6  A    between atoms: C_8  and  C_9 
REMARK    7  A    between atoms: C_9  and  O_11 
REMARK    8  A    between atoms: C_28  and  C_29 
REMARK    9  A    between atoms: C_29  and  C_30 
REMARK   10  A    between atoms: C_30  and  O_32 
REMARK   11  A    between atoms: C_33  and  C_34 
REMARK   12  A    between atoms: C_34  and  C_35 
REMARK   13  A    between atoms: C_35  and  C_36 
REMARK   14  A    between atoms: C_36  and  O_38 
REMARK   15  A    between atoms: C_39  and  C_40 
REMARK   16  A    between atoms: C_40  and  C_41 
REMARK   17  A    between atoms: C_41  and  C_42 
REMARK   18  A    between atoms: C_42  and  O_44 
REMARK   19  A    between atoms: C_45  and  C_46 
REMARK   20  A    between atoms: C_46  and  C_47 
REMARK   21  A    between atoms: C_47  and  O_49 
REMARK   22  A    between atoms: C_50  and  C_51 
REMARK   23  A    between atoms: C_51  and  C_52 
REMARK   24  A    between atoms: C_52  and  O_54 
REMARK   25  A    between atoms: C_55  and  C_56 
REMARK   26  A    between atoms: C_56  and  C_57 
REMARK   27  A    between atoms: C_57  and  C_58 
REMARK   28  A    between atoms: C_58  and  O_60 
ROOT
ATOM      1  O   UNK d   0      10.618   1.377  16.708  0.00  0.00    -0.650 OA
ATOM      2  C   UNK d   0      11.010   0.859  15.639  0.00  0.00     0.139 C 
ENDROOT
BRANCH   2   3
ATOM      3  O   UNK d   0      11.796   1.593  14.783  0.00  0.00    -0.776 OA
ATOM      4  H   UNK d   0      11.553   1.689  13.795  0.00  0.00     0.167 HD
ENDBRANCH   2   3
BRANCH   2   5
ATOM      5  C   UNK d   0      10.625  -0.541  15.300  0.00  0.00     0.115 C 
BRANCH   5   6
ATOM      6  C   UNK d   0      11.855  -1.396  15.160  0.00  0.00     0.052 C 
BRANCH   6   7
ATOM      7  C   UNK d   0      11.731  -2.415  14.053  0.00  0.00    -0.020 A 
ATOM      8  C   UNK d   0      11.434  -3.685  14.166  0.00  0.00    -0.011 A 
ATOM      9  C   UNK d   0      11.440  -4.264  12.833  0.00  0.00     0.067 A 
ATOM     10  C   UNK d   0      11.192  -5.528  12.277  0.00  0.00     0.062 C 
ATOM     11  N   UNK d   0      11.756  -3.276  11.969  0.00  0.00    -0.248 NA
ATOM     12  C   UNK d   0      10.974  -5.833  10.929  0.00  0.00     0.041 A 
ATOM     13  N   UNK d   0      11.589  -5.402   9.812  0.00  0.00    -0.355 N 
ATOM     14  C   UNK d   0       9.911  -6.690  10.589  0.00  0.00    -0.022 A 
ATOM     15  C   UNK d   0      10.940  -5.957   8.771  0.00  0.00     0.042 A 
ATOM     16  H   UNK d   0      12.477  -4.734   9.761  0.00  0.00     0.166 HD
ATOM     17  C   UNK d   0      11.169  -5.842   7.385  0.00  0.00     0.062 C 
ATOM     18  C   UNK d   0       9.881  -6.771   9.219  0.00  0.00    -0.013 A 
ATOM     19  C   UNK d   0      11.432  -4.718   6.645  0.00  0.00     0.067 A 
ATOM     20  N   UNK d   0      11.708  -3.600   7.321  0.00  0.00    -0.248 NA
ATOM     21  C   UNK d   0      11.483  -4.387   5.231  0.00  0.00    -0.011 A 
ATOM     22  C   UNK d   0      11.933  -2.561   6.451  0.00  0.00     0.066 A 
ATOM     23  C   UNK d   0      12.269  -1.342   7.021  0.00  0.00     0.062 C 
ATOM     24  C   UNK d   0      11.772  -3.122   5.124  0.00  0.00    -0.020 A 
ATOM     25  C   UNK d   0      12.496  -1.059   8.377  0.00  0.00     0.041 A 
ATOM     26  N   UNK d   0      11.875  -1.476   9.487  0.00  0.00    -0.355 N 
ATOM     27  C   UNK d   0      13.566  -0.203   8.718  0.00  0.00    -0.022 A 
ATOM     28  C   UNK d   0      12.515  -0.917  10.526  0.00  0.00     0.042 A 
ATOM     29  H   UNK d   0      10.977  -2.139   9.536  0.00  0.00     0.166 HD
ATOM     30  C   UNK d   0      12.293  -1.015  11.908  0.00  0.00     0.062 C 
ATOM     31  C   UNK d   0      13.585  -0.108  10.076  0.00  0.00    -0.013 A 
ATOM     32  C   UNK d   0      11.943  -2.139  12.640  0.00  0.00     0.066 A 
BRANCH   8  33
ATOM     33  C   UNK d   0      11.147  -4.419  15.412  0.00  0.00     0.151 C 
BRANCH  33  34
ATOM     34  C   UNK d   0      11.988  -5.619  15.575  0.00  0.00     0.143 C 
ATOM     35  O   UNK d   0      11.478  -6.733  15.759  0.00  0.00    -0.650 OA
BRANCH  34  36
ATOM     36  O   UNK d   0      13.357  -5.496  15.521  0.00  0.00    -0.776 OA
ATOM     37  H   UNK d   0      13.948  -5.740  16.328  0.00  0.00     0.167 HD
ENDBRANCH  34  36
ENDBRANCH  33  34
ENDBRANCH   8  33
BRANCH  31  38
ATOM     38  C   UNK d   0      14.568   0.692  10.899  0.00  0.00     0.151 C 
BRANCH  38  39
ATOM     39  C   UNK d   0      14.114   2.042  11.159  0.00  0.00     0.143 C 
ATOM     40  O   UNK d   0      13.557   2.363  12.223  0.00  0.00    -0.650 OA
BRANCH  39  41
ATOM     41  O   UNK d   0      14.304   3.028  10.191  0.00  0.00    -0.776 OA
ATOM     42  H   UNK d   0      14.786   2.745   9.332  0.00  0.00     0.167 HD
ENDBRANCH  39  41
ENDBRANCH  38  39
ENDBRANCH  31  38
BRANCH  27  43
ATOM     43  C   UNK d   0      14.544   0.513   7.821  0.00  0.00     0.052 C 
BRANCH  43  44
ATOM     44  C   UNK d   0      15.835  -0.220   7.650  0.00  0.00     0.115 C 
BRANCH  44  45
ATOM     45  C   UNK d   0      16.916   0.737   8.001  0.00  0.00     0.139 C 
ATOM     46  O   UNK d   0      16.592   1.914   8.297  0.00  0.00    -0.650 OA
BRANCH  45  47
ATOM     47  O   UNK d   0      18.248   0.385   8.019  0.00  0.00    -0.776 OA
ATOM     48  H   UNK d   0      18.651  -0.317   7.377  0.00  0.00     0.167 HD
ENDBRANCH  45  47
ENDBRANCH  44  45
ENDBRANCH  43  44
ENDBRANCH  27  43
BRANCH  24  49
ATOM     49  C   UNK d   0      11.960  -2.377   3.867  0.00  0.00     0.052 C 
BRANCH  49  50
ATOM     50  C   UNK d   0      13.361  -2.573   3.346  0.00  0.00     0.115 C 
BRANCH  50  51
ATOM     51  C   UNK d   0      14.180  -1.381   3.177  0.00  0.00     0.139 C 
ATOM     52  O   UNK d   0      14.792  -1.126   2.113  0.00  0.00    -0.650 OA
BRANCH  51  53
ATOM     53  O   UNK d   0      14.305  -0.479   4.223  0.00  0.00    -0.776 OA
ATOM     54  H   UNK d   0      14.559  -0.834   5.129  0.00  0.00     0.167 HD
ENDBRANCH  51  53
ENDBRANCH  50  51
ENDBRANCH  49  50
ENDBRANCH  24  49
BRANCH  21  55
ATOM     55  C   UNK d   0      11.240  -5.370   4.134  0.00  0.00     0.151 C 
BRANCH  55  56
ATOM     56  C   UNK d   0      11.246  -6.756   4.624  0.00  0.00     0.143 C 
ATOM     57  O   UNK d   0      12.288  -7.436   4.717  0.00  0.00    -0.650 OA
BRANCH  56  58
ATOM     58  O   UNK d   0      10.026  -7.318   4.998  0.00  0.00    -0.776 OA
ATOM     59  H   UNK d   0       9.754  -8.164   4.465  0.00  0.00     0.167 HD
ENDBRANCH  56  58
ENDBRANCH  55  56
ENDBRANCH  21  55
BRANCH  18  60
ATOM     60  C   UNK d   0       8.889  -7.581   8.422  0.00  0.00     0.151 C 
BRANCH  60  61
ATOM     61  C   UNK d   0       9.515  -8.896   8.215  0.00  0.00     0.143 C 
ATOM     62  O   UNK d   0       9.046  -9.996   8.510  0.00  0.00    -0.650 OA
BRANCH  61  63
ATOM     63  O   UNK d   0      10.794  -8.866   7.610  0.00  0.00    -0.776 OA
ATOM     64  H   UNK d   0      11.379  -9.683   7.593  0.00  0.00     0.167 HD
ENDBRANCH  61  63
ENDBRANCH  60  61
ENDBRANCH  18  60
BRANCH  14  65
ATOM     65  C   UNK d   0       8.995  -7.508  11.454  0.00  0.00     0.052 C 
BRANCH  65  66
ATOM     66  C   UNK d   0       7.965  -6.688  12.148  0.00  0.00     0.115 C 
BRANCH  66  67
ATOM     67  C   UNK d   0       7.729  -6.880  13.551  0.00  0.00     0.139 C 
ATOM     68  O   UNK d   0       6.629  -7.437  13.917  0.00  0.00    -0.650 OA
BRANCH  67  69
ATOM     69  O   UNK d   0       8.563  -6.532  14.612  0.00  0.00    -0.776 OA
ATOM     70  H   UNK d   0       8.979  -7.318  15.132  0.00  0.00     0.167 HD
ENDBRANCH  67  69
ENDBRANCH  66  67
ENDBRANCH  65  66
ENDBRANCH  14  65
ENDBRANCH   6   7
ENDBRANCH   5   6
ENDBRANCH   2   5
TORSDOF 28
ENDMDL
MODEL 13
REMARK VINA RESULT:      -8.3      1.521      2.043
REMARK  28 active torsions:
REMARK  status: ('A' for Active; 'I' for Inactive)
REMARK    1  A    between atoms: C_2  and  O_3 
REMARK    2  A    between atoms: C_2  and  C_4 
REMARK    3  A    between atoms: C_4  and  C_5 
REMARK    4  A    between atoms: C_5  and  C_6 
REMARK    5  A    between atoms: C_7  and  C_8 
REMARK    6  A    between atoms: C_8  and  C_9 
REMARK    7  A    between atoms: C_9  and  O_11 
REMARK    8  A    between atoms: C_28  and  C_29 
REMARK    9  A    between atoms: C_29  and  C_30 
REMARK   10  A    between atoms: C_30  and  O_32 
REMARK   11  A    between atoms: C_33  and  C_34 
REMARK   12  A    between atoms: C_34  and  C_35 
REMARK   13  A    between atoms: C_35  and  C_36 
REMARK   14  A    between atoms: C_36  and  O_38 
REMARK   15  A    between atoms: C_39  and  C_40 
REMARK   16  A    between atoms: C_40  and  C_41 
REMARK   17  A    between atoms: C_41  and  C_42 
REMARK   18  A    between atoms: C_42  and  O_44 
REMARK   19  A    between atoms: C_45  and  C_46 
REMARK   20  A    between atoms: C_46  and  C_47 
REMARK   21  A    between atoms: C_47  and  O_49 
REMARK   22  A    between atoms: C_50  and  C_51 
REMARK   23  A    between atoms: C_51  and  C_52 
REMARK   24  A    between atoms: C_52  and  O_54 
REMARK   25  A    between atoms: C_55  and  C_56 
REMARK   26  A    between atoms: C_56  and  C_57 
REMARK   27  A    between atoms: C_57  and  C_58 
REMARK   28  A    between atoms: C_58  and  O_60 
ROOT
ATOM      1  O   UNK d   0      14.500   1.538  11.555  0.00  0.00    -0.650 OA
ATOM      2  C   UNK d   0      14.189   1.248  10.378  0.00  0.00     0.139 C 
ENDROOT
BRANCH   2   3
ATOM      3  O   UNK d   0      12.897   1.444   9.955  0.00  0.00    -0.776 OA
ATOM      4  H   UNK d   0      12.265   0.655   9.805  0.00  0.00     0.167 HD
ENDBRANCH   2   3
BRANCH   2   5
ATOM      5  C   UNK d   0      15.213   0.693   9.448  0.00  0.00     0.115 C 
BRANCH   5   6
ATOM      6  C   UNK d   0      15.580  -0.708   9.858  0.00  0.00     0.052 C 
BRANCH   6   7
ATOM      7  C   UNK d   0      14.408  -1.657   9.795  0.00  0.00    -0.020 A 
ATOM      8  C   UNK d   0      13.876  -2.199   8.730  0.00  0.00    -0.011 A 
ATOM      9  C   UNK d   0      12.766  -3.033   9.162  0.00  0.00     0.067 A 
ATOM     10  C   UNK d   0      11.830  -3.874   8.540  0.00  0.00     0.062 C 
ATOM     11  N   UNK d   0      12.691  -2.936  10.506  0.00  0.00    -0.248 NA
ATOM     12  C   UNK d   0      11.003  -4.821   9.154  0.00  0.00     0.041 A 
ATOM     13  N   UNK d   0      10.281  -4.765  10.290  0.00  0.00    -0.355 N 
ATOM     14  C   UNK d   0      10.891  -6.101   8.580  0.00  0.00    -0.022 A 
ATOM     15  C   UNK d   0       9.721  -5.978  10.455  0.00  0.00     0.042 A 
ATOM     16  H   UNK d   0      10.155  -3.879  10.951  0.00  0.00     0.166 HD
ATOM     17  C   UNK d   0       8.873  -6.461  11.472  0.00  0.00     0.062 C 
ATOM     18  C   UNK d   0      10.081  -6.842   9.403  0.00  0.00    -0.013 A 
ATOM     19  C   UNK d   0       8.980  -6.305  12.830  0.00  0.00     0.067 A 
ATOM     20  N   UNK d   0       9.882  -5.423  13.269  0.00  0.00    -0.248 NA
ATOM     21  C   UNK d   0       8.347  -6.888  14.002  0.00  0.00    -0.011 A 
ATOM     22  C   UNK d   0       9.885  -5.387  14.642  0.00  0.00     0.066 A 
ATOM     23  C   UNK d   0      10.753  -4.481  15.233  0.00  0.00     0.062 C 
ATOM     24  C   UNK d   0       8.884  -6.349  15.059  0.00  0.00    -0.020 A 
ATOM     25  C   UNK d   0      11.566  -3.529  14.598  0.00  0.00     0.041 A 
ATOM     26  N   UNK d   0      12.295  -3.590  13.477  0.00  0.00    -0.355 N 
ATOM     27  C   UNK d   0      11.674  -2.243  15.172  0.00  0.00    -0.022 A 
ATOM     28  C   UNK d   0      12.862  -2.384  13.315  0.00  0.00     0.042 A 
ATOM     29  H   UNK d   0      12.430  -4.484  12.820  0.00  0.00     0.166 HD
ATOM     30  C   UNK d   0      13.714  -1.892  12.314  0.00  0.00     0.062 C 
ATOM     31  C   UNK d   0      12.492  -1.512  14.366  0.00  0.00    -0.013 A 
ATOM     32  C   UNK d   0      13.651  -2.123  10.948  0.00  0.00     0.066 A 
BRANCH   8  33
ATOM     33  C   UNK d   0      14.304  -2.008   7.332  0.00  0.00     0.151 C 
BRANCH  33  34
ATOM     34  C   UNK d   0      14.754  -3.260   6.697  0.00  0.00     0.143 C 
ATOM     35  O   UNK d   0      15.601  -3.982   7.243  0.00  0.00    -0.650 OA
BRANCH  34  36
ATOM     36  O   UNK d   0      14.226  -3.628   5.481  0.00  0.00    -0.776 OA
ATOM     37  H   UNK d   0      14.795  -4.120   4.778  0.00  0.00     0.167 HD
ENDBRANCH  34  36
ENDBRANCH  33  34
ENDBRANCH   8  33
BRANCH  31  38
ATOM     38  C   UNK d   0      12.889  -0.069  14.573  0.00  0.00     0.151 C 
BRANCH  38  39
ATOM     39  C   UNK d   0      12.027   0.856  13.868  0.00  0.00     0.143 C 
ATOM     40  O   UNK d   0      10.853   0.577  13.570  0.00  0.00    -0.650 OA
BRANCH  39  41
ATOM     41  O   UNK d   0      12.518   2.110  13.506  0.00  0.00    -0.776 OA
ATOM     42  H   UNK d   0      13.510   2.290  13.693  0.00  0.00     0.167 HD
ENDBRANCH  39  41
ENDBRANCH  38  39
ENDBRANCH  31  38
BRANCH  27  43
ATOM     43  C   UNK d   0      11.044  -1.700  16.430  0.00  0.00     0.052 C 
BRANCH  43  44
ATOM     44  C   UNK d   0       9.688  -1.113  16.207  0.00  0.00     0.115 C 
BRANCH  44  45
ATOM     45  C   UNK d   0       9.632   0.142  17.001  0.00  0.00     0.139 C 
ATOM     46  O   UNK d   0       8.995   0.129  18.083  0.00  0.00    -0.650 OA
BRANCH  45  47
ATOM     47  O   UNK d   0      10.252   1.306  16.603  0.00  0.00    -0.776 OA
ATOM     48  H   UNK d   0       9.789   2.229  16.642  0.00  0.00     0.167 HD
ENDBRANCH  45  47
ENDBRANCH  44  45
ENDBRANCH  43  44
ENDBRANCH  27  43
BRANCH  24  49
ATOM     49  C   UNK d   0       8.511  -6.623  16.457  0.00  0.00     0.052 C 
BRANCH  49  50
ATOM     50  C   UNK d   0       9.664  -7.256  17.193  0.00  0.00     0.115 C 
BRANCH  50  51
ATOM     51  C   UNK d   0      10.110  -8.564  16.731  0.00  0.00     0.139 C 
ATOM     52  O   UNK d   0      11.156  -8.724  16.059  0.00  0.00    -0.650 OA
BRANCH  51  53
ATOM     53  O   UNK d   0       9.360  -9.690  17.033  0.00  0.00    -0.776 OA
ATOM     54  H   UNK d   0       9.793 -10.419  17.573  0.00  0.00     0.167 HD
ENDBRANCH  51  53
ENDBRANCH  50  51
ENDBRANCH  49  50
ENDBRANCH  24  49
BRANCH  21  55
ATOM     55  C   UNK d   0       7.269  -7.918  13.943  0.00  0.00     0.151 C 
BRANCH  55  56
ATOM     56  C   UNK d   0       7.769  -9.260  14.277  0.00  0.00     0.143 C 
ATOM     57  O   UNK d   0       7.115 -10.075  14.956  0.00  0.00    -0.650 OA
BRANCH  56  58
ATOM     58  O   UNK d   0       9.031  -9.618  13.805  0.00  0.00    -0.776 OA
ATOM     59  H   UNK d   0       9.736  -9.804  14.541  0.00  0.00     0.167 HD
ENDBRANCH  56  58
ENDBRANCH  55  56
ENDBRANCH  21  55
BRANCH  18  60
ATOM     60  C   UNK d   0       9.698  -8.283   9.170  0.00  0.00     0.151 C 
BRANCH  60  61
ATOM     61  C   UNK d   0       8.554  -8.253   8.246  0.00  0.00     0.143 C 
ATOM     62  O   UNK d   0       8.543  -8.608   7.067  0.00  0.00    -0.650 OA
BRANCH  61  63
ATOM     63  O   UNK d   0       7.348  -7.758   8.797  0.00  0.00    -0.776 OA
ATOM     64  H   UNK d   0       6.464  -8.182   8.575  0.00  0.00     0.167 HD
ENDBRANCH  61  63
ENDBRANCH  60  61
ENDBRANCH  18  60
BRANCH  14  65
ATOM     65  C   UNK d   0      11.407  -6.639   7.276  0.00  0.00     0.052 C 
BRANCH  65  66
ATOM     66  C   UNK d   0      10.703  -6.073   6.094  0.00  0.00     0.115 C 
BRANCH  66  67
ATOM     67  C   UNK d   0      11.448  -5.352   5.101  0.00  0.00     0.139 C 
ATOM     68  O   UNK d   0      11.122  -4.132   4.856  0.00  0.00    -0.650 OA
BRANCH  67  69
ATOM     69  O   UNK d   0      12.517  -5.813   4.335  0.00  0.00    -0.776 OA
ATOM     70  H   UNK d   0      12.432  -6.777   3.981  0.00  0.00     0.167 HD
ENDBRANCH  67  69
ENDBRANCH  66  67
ENDBRANCH  65  66
ENDBRANCH  14  65
ENDBRANCH   6   7
ENDBRANCH   5   6
ENDBRANCH   2   5
TORSDOF 28
ENDMDL
MODEL 14
REMARK VINA RESULT:      -8.3      2.433     10.040
REMARK  28 active torsions:
REMARK  status: ('A' for Active; 'I' for Inactive)
REMARK    1  A    between atoms: C_2  and  O_3 
REMARK    2  A    between atoms: C_2  and  C_4 
REMARK    3  A    between atoms: C_4  and  C_5 
REMARK    4  A    between atoms: C_5  and  C_6 
REMARK    5  A    between atoms: C_7  and  C_8 
REMARK    6  A    between atoms: C_8  and  C_9 
REMARK    7  A    between atoms: C_9  and  O_11 
REMARK    8  A    between atoms: C_28  and  C_29 
REMARK    9  A    between atoms: C_29  and  C_30 
REMARK   10  A    between atoms: C_30  and  O_32 
REMARK   11  A    between atoms: C_33  and  C_34 
REMARK   12  A    between atoms: C_34  and  C_35 
REMARK   13  A    between atoms: C_35  and  C_36 
REMARK   14  A    between atoms: C_36  and  O_38 
REMARK   15  A    between atoms: C_39  and  C_40 
REMARK   16  A    between atoms: C_40  and  C_41 
REMARK   17  A    between atoms: C_41  and  C_42 
REMARK   18  A    between atoms: C_42  and  O_44 
REMARK   19  A    between atoms: C_45  and  C_46 
REMARK   20  A    between atoms: C_46  and  C_47 
REMARK   21  A    between atoms: C_47  and  O_49 
REMARK   22  A    between atoms: C_50  and  C_51 
REMARK   23  A    between atoms: C_51  and  C_52 
REMARK   24  A    between atoms: C_52  and  O_54 
REMARK   25  A    between atoms: C_55  and  C_56 
REMARK   26  A    between atoms: C_56  and  C_57 
REMARK   27  A    between atoms: C_57  and  C_58 
REMARK   28  A    between atoms: C_58  and  O_60 
ROOT
ATOM      1  O   UNK d   0      12.968  -6.813  15.105  0.00  0.00    -0.650 OA
ATOM      2  C   UNK d   0      13.514  -5.690  15.178  0.00  0.00     0.139 C 
ENDROOT
BRANCH   2   3
ATOM      3  O   UNK d   0      14.849  -5.569  14.878  0.00  0.00    -0.776 OA
ATOM      4  H   UNK d   0      15.513  -5.202  15.564  0.00  0.00     0.167 HD
ENDBRANCH   2   3
BRANCH   2   5
ATOM      5  C   UNK d   0      12.719  -4.497  15.588  0.00  0.00     0.115 C 
BRANCH   5   6
ATOM      6  C   UNK d   0      11.415  -4.462  14.838  0.00  0.00     0.052 C 
BRANCH   6   7
ATOM      7  C   UNK d   0      11.502  -3.665  13.558  0.00  0.00    -0.020 A 
ATOM      8  C   UNK d   0      11.702  -2.378  13.431  0.00  0.00    -0.011 A 
ATOM      9  C   UNK d   0      11.699  -2.066  12.011  0.00  0.00     0.067 A 
ATOM     10  C   UNK d   0      11.874  -0.914  11.228  0.00  0.00     0.062 C 
ATOM     11  N   UNK d   0      11.486  -3.221  11.347  0.00  0.00    -0.248 NA
ATOM     12  C   UNK d   0      12.115  -0.855   9.851  0.00  0.00     0.041 A 
ATOM     13  N   UNK d   0      11.571  -1.538   8.825  0.00  0.00    -0.355 N 
ATOM     14  C   UNK d   0      13.123   0.002   9.373  0.00  0.00    -0.022 A 
ATOM     15  C   UNK d   0      12.214  -1.142   7.710  0.00  0.00     0.042 A 
ATOM     16  H   UNK d   0      10.737  -2.271   8.886  0.00  0.00     0.166 HD
ATOM     17  C   UNK d   0      12.041  -1.536   6.368  0.00  0.00     0.062 C 
ATOM     18  C   UNK d   0      13.194  -0.178   8.014  0.00  0.00    -0.013 A 
ATOM     19  C   UNK d   0      11.886  -2.797   5.853  0.00  0.00     0.067 A 
ATOM     20  N   UNK d   0      11.670  -3.785   6.726  0.00  0.00    -0.248 NA
ATOM     21  C   UNK d   0      11.908  -3.395   4.528  0.00  0.00    -0.011 A 
ATOM     22  C   UNK d   0      11.550  -4.985   6.068  0.00  0.00     0.066 A 
ATOM     23  C   UNK d   0      11.285  -6.095   6.855  0.00  0.00     0.062 C 
ATOM     24  C   UNK d   0      11.715  -4.675   4.661  0.00  0.00    -0.020 A 
ATOM     25  C   UNK d   0      11.032  -6.132   8.235  0.00  0.00     0.041 A 
ATOM     26  N   UNK d   0      11.583  -5.464   9.256  0.00  0.00    -0.355 N 
ATOM     27  C   UNK d   0      10.017  -6.989   8.713  0.00  0.00    -0.022 A 
ATOM     28  C   UNK d   0      10.950  -5.864  10.370  0.00  0.00     0.042 A 
ATOM     29  H   UNK d   0      12.429  -4.736   9.194  0.00  0.00     0.166 HD
ATOM     30  C   UNK d   0      11.118  -5.487  11.712  0.00  0.00     0.062 C 
ATOM     31  C   UNK d   0       9.958  -6.825  10.063  0.00  0.00    -0.013 A 
ATOM     32  C   UNK d   0      11.360  -4.221  12.221  0.00  0.00     0.066 A 
BRANCH   8  33
ATOM     33  C   UNK d   0      11.892  -1.400  14.518  0.00  0.00     0.151 C 
BRANCH  33  34
ATOM     34  C   UNK d   0      13.085  -0.557  14.325  0.00  0.00     0.143 C 
ATOM     35  O   UNK d   0      12.977   0.647  14.053  0.00  0.00    -0.650 OA
BRANCH  34  36
ATOM     36  O   UNK d   0      14.335  -1.118  14.449  0.00  0.00    -0.776 OA
ATOM     37  H   UNK d   0      14.505  -2.104  14.208  0.00  0.00     0.167 HD
ENDBRANCH  34  36
ENDBRANCH  33  34
ENDBRANCH   8  33
BRANCH  31  38
ATOM     38  C   UNK d   0       9.009  -7.528  11.006  0.00  0.00     0.151 C 
BRANCH  38  39
ATOM     39  C   UNK d   0       7.815  -6.756  11.279  0.00  0.00     0.143 C 
ATOM     40  O   UNK d   0       7.120  -6.264  10.373  0.00  0.00    -0.650 OA
BRANCH  39  41
ATOM     41  O   UNK d   0       7.418  -6.551  12.600  0.00  0.00    -0.776 OA
ATOM     42  H   UNK d   0       6.412  -6.590  12.790  0.00  0.00     0.167 HD
ENDBRANCH  39  41
ENDBRANCH  38  39
ENDBRANCH  31  38
BRANCH  27  43
ATOM     43  C   UNK d   0       9.125  -7.936   7.951  0.00  0.00     0.052 C 
BRANCH  43  44
ATOM     44  C   UNK d   0       9.579  -9.359   8.019  0.00  0.00     0.115 C 
BRANCH  44  45
ATOM     45  C   UNK d   0       8.364 -10.181   8.253  0.00  0.00     0.139 C 
ATOM     46  O   UNK d   0       8.500 -11.427   8.341  0.00  0.00    -0.650 OA
BRANCH  45  47
ATOM     47  O   UNK d   0       7.105  -9.635   8.382  0.00  0.00    -0.776 OA
ATOM     48  H   UNK d   0       6.405  -9.656   7.623  0.00  0.00     0.167 HD
ENDBRANCH  45  47
ENDBRANCH  44  45
ENDBRANCH  43  44
ENDBRANCH  27  43
BRANCH  24  49
ATOM     49  C   UNK d   0      11.625  -5.658   3.568  0.00  0.00     0.052 C 
BRANCH  49  50
ATOM     50  C   UNK d   0      12.988  -5.912   2.977  0.00  0.00     0.115 C 
BRANCH  50  51
ATOM     51  C   UNK d   0      13.036  -6.477   1.635  0.00  0.00     0.139 C 
ATOM     52  O   UNK d   0      12.025  -6.559   0.899  0.00  0.00    -0.650 OA
BRANCH  51  53
ATOM     53  O   UNK d   0      14.238  -6.953   1.134  0.00  0.00    -0.776 OA
ATOM     54  H   UNK d   0      14.930  -6.284   0.843  0.00  0.00     0.167 HD
ENDBRANCH  51  53
ENDBRANCH  50  51
ENDBRANCH  49  50
ENDBRANCH  24  49
BRANCH  21  55
ATOM     55  C   UNK d   0      12.115  -2.622   3.267  0.00  0.00     0.151 C 
BRANCH  55  56
ATOM     56  C   UNK d   0      13.443  -1.991   3.219  0.00  0.00     0.143 C 
ATOM     57  O   UNK d   0      14.503  -2.645   3.249  0.00  0.00    -0.650 OA
BRANCH  56  58
ATOM     58  O   UNK d   0      13.497  -0.600   3.137  0.00  0.00    -0.776 OA
ATOM     59  H   UNK d   0      13.408  -0.216   2.180  0.00  0.00     0.167 HD
ENDBRANCH  56  58
ENDBRANCH  55  56
ENDBRANCH  21  55
BRANCH  18  60
ATOM     60  C   UNK d   0      14.151   0.541   7.096  0.00  0.00     0.151 C 
BRANCH  60  61
ATOM     61  C   UNK d   0      15.496   0.085   7.477  0.00  0.00     0.143 C 
ATOM     62  O   UNK d   0      16.506   0.777   7.608  0.00  0.00    -0.650 OA
BRANCH  61  63
ATOM     63  O   UNK d   0      15.616  -1.306   7.714  0.00  0.00    -0.776 OA
ATOM     64  H   UNK d   0      14.881  -1.820   8.166  0.00  0.00     0.167 HD
ENDBRANCH  61  63
ENDBRANCH  60  61
ENDBRANCH  18  60
BRANCH  14  65
ATOM     65  C   UNK d   0      13.948   1.038  10.082  0.00  0.00     0.052 C 
BRANCH  65  66
ATOM     66  C   UNK d   0      13.193   2.288  10.366  0.00  0.00     0.115 C 
BRANCH  66  67
ATOM     67  C   UNK d   0      13.440   3.463   9.579  0.00  0.00     0.139 C 
ATOM     68  O   UNK d   0      14.511   3.511   8.869  0.00  0.00    -0.650 OA
BRANCH  67  69
ATOM     69  O   UNK d   0      12.646   4.604   9.477  0.00  0.00    -0.776 OA
ATOM     70  H   UNK d   0      11.864   4.667  10.144  0.00  0.00     0.167 HD
ENDBRANCH  67  69
ENDBRANCH  66  67
ENDBRANCH  65  66
ENDBRANCH  14  65
ENDBRANCH   6   7
ENDBRANCH   5   6
ENDBRANCH   2   5
TORSDOF 28
ENDMDL
MODEL 15
REMARK VINA RESULT:      -8.3     30.446     34.343
REMARK  28 active torsions:
REMARK  status: ('A' for Active; 'I' for Inactive)
REMARK    1  A    between atoms: C_2  and  O_3 
REMARK    2  A    between atoms: C_2  and  C_4 
REMARK    3  A    between atoms: C_4  and  C_5 
REMARK    4  A    between atoms: C_5  and  C_6 
REMARK    5  A    between atoms: C_7  and  C_8 
REMARK    6  A    between atoms: C_8  and  C_9 
REMARK    7  A    between atoms: C_9  and  O_11 
REMARK    8  A    between atoms: C_28  and  C_29 
REMARK    9  A    between atoms: C_29  and  C_30 
REMARK   10  A    between atoms: C_30  and  O_32 
REMARK   11  A    between atoms: C_33  and  C_34 
REMARK   12  A    between atoms: C_34  and  C_35 
REMARK   13  A    between atoms: C_35  and  C_36 
REMARK   14  A    between atoms: C_36  and  O_38 
REMARK   15  A    between atoms: C_39  and  C_40 
REMARK   16  A    between atoms: C_40  and  C_41 
REMARK   17  A    between atoms: C_41  and  C_42 
REMARK   18  A    between atoms: C_42  and  O_44 
REMARK   19  A    between atoms: C_45  and  C_46 
REMARK   20  A    between atoms: C_46  and  C_47 
REMARK   21  A    between atoms: C_47  and  O_49 
REMARK   22  A    between atoms: C_50  and  C_51 
REMARK   23  A    between atoms: C_51  and  C_52 
REMARK   24  A    between atoms: C_52  and  O_54 
REMARK   25  A    between atoms: C_55  and  C_56 
REMARK   26  A    between atoms: C_56  and  C_57 
REMARK   27  A    between atoms: C_57  and  C_58 
REMARK   28  A    between atoms: C_58  and  O_60 
ROOT
ATOM      1  O   UNK d   0     -13.307  -7.171 -13.716  0.00  0.00    -0.650 OA
ATOM      2  C   UNK d   0     -14.303  -7.166 -12.958  0.00  0.00     0.139 C 
ENDROOT
BRANCH   2   3
ATOM      3  O   UNK d   0     -14.165  -7.601 -11.662  0.00  0.00    -0.776 OA
ATOM      4  H   UNK d   0     -13.580  -7.095 -10.995  0.00  0.00     0.167 HD
ENDBRANCH   2   3
BRANCH   2   5
ATOM      5  C   UNK d   0     -15.624  -6.692 -13.461  0.00  0.00     0.115 C 
BRANCH   5   6
ATOM      6  C   UNK d   0     -15.565  -5.219 -13.761  0.00  0.00     0.052 C 
BRANCH   6   7
ATOM      7  C   UNK d   0     -15.081  -4.405 -12.585  0.00  0.00    -0.020 A 
ATOM      8  C   UNK d   0     -14.000  -3.672 -12.513  0.00  0.00    -0.011 A 
ATOM      9  C   UNK d   0     -13.948  -3.085 -11.184  0.00  0.00     0.067 A 
ATOM     10  C   UNK d   0     -13.089  -2.214 -10.495  0.00  0.00     0.062 C 
ATOM     11  N   UNK d   0     -15.034  -3.520 -10.512  0.00  0.00    -0.248 NA
ATOM     12  C   UNK d   0     -13.352  -1.536  -9.300  0.00  0.00     0.041 A 
ATOM     13  N   UNK d   0     -13.944  -1.944  -8.161  0.00  0.00    -0.355 N 
ATOM     14  C   UNK d   0     -13.022  -0.172  -9.205  0.00  0.00    -0.022 A 
ATOM     15  C   UNK d   0     -14.004  -0.871  -7.349  0.00  0.00     0.042 A 
ATOM     16  H   UNK d   0     -14.294  -2.973  -7.928  0.00  0.00     0.166 HD
ATOM     17  C   UNK d   0     -14.521  -0.742  -6.044  0.00  0.00     0.062 C 
ATOM     18  C   UNK d   0     -13.436   0.258  -7.969  0.00  0.00    -0.013 A 
ATOM     19  C   UNK d   0     -15.702  -1.218  -5.534  0.00  0.00     0.067 A 
ATOM     20  N   UNK d   0     -16.380  -2.087  -6.287  0.00  0.00    -0.248 NA
ATOM     21  C   UNK d   0     -16.474  -1.010  -4.320  0.00  0.00    -0.011 A 
ATOM     22  C   UNK d   0     -17.541  -2.461  -5.655  0.00  0.00     0.066 A 
ATOM     23  C   UNK d   0     -18.328  -3.395  -6.314  0.00  0.00     0.062 C 
ATOM     24  C   UNK d   0     -17.551  -1.737  -4.400  0.00  0.00    -0.020 A 
ATOM     25  C   UNK d   0     -18.039  -4.074  -7.508  0.00  0.00     0.041 A 
ATOM     26  N   UNK d   0     -17.465  -3.665  -8.645  0.00  0.00    -0.355 N 
ATOM     27  C   UNK d   0     -18.367  -5.444  -7.601  0.00  0.00    -0.022 A 
ATOM     28  C   UNK d   0     -17.412  -4.730  -9.460  0.00  0.00     0.042 A 
ATOM     29  H   UNK d   0     -17.123  -2.627  -8.882  0.00  0.00     0.166 HD
ATOM     30  C   UNK d   0     -16.908  -4.872 -10.763  0.00  0.00     0.062 C 
ATOM     31  C   UNK d   0     -17.973  -5.868  -8.832  0.00  0.00    -0.013 A 
ATOM     32  C   UNK d   0     -15.757  -4.317 -11.299  0.00  0.00     0.066 A 
BRANCH   8  33
ATOM     33  C   UNK d   0     -12.997  -3.467 -13.575  0.00  0.00     0.151 C 
BRANCH  33  34
ATOM     34  C   UNK d   0     -13.224  -2.230 -14.343  0.00  0.00     0.143 C 
ATOM     35  O   UNK d   0     -14.040  -2.200 -15.276  0.00  0.00    -0.650 OA
BRANCH  34  36
ATOM     36  O   UNK d   0     -12.518  -1.094 -14.019  0.00  0.00    -0.776 OA
ATOM     37  H   UNK d   0     -12.752  -0.540 -13.184  0.00  0.00     0.167 HD
ENDBRANCH  34  36
ENDBRANCH  33  34
ENDBRANCH   8  33
BRANCH  31  38
ATOM     38  C   UNK d   0     -18.108  -7.270  -9.378  0.00  0.00     0.151 C 
BRANCH  38  39
ATOM     39  C   UNK d   0     -16.965  -8.104  -9.072  0.00  0.00     0.143 C 
ATOM     40  O   UNK d   0     -15.817  -7.830  -9.465  0.00  0.00    -0.650 OA
BRANCH  39  41
ATOM     41  O   UNK d   0     -17.142  -9.258  -8.310  0.00  0.00    -0.776 OA
ATOM     42  H   UNK d   0     -16.300  -9.799  -8.089  0.00  0.00     0.167 HD
ENDBRANCH  39  41
ENDBRANCH  38  39
ENDBRANCH  31  38
BRANCH  27  43
ATOM     43  C   UNK d   0     -19.028  -6.342  -6.585  0.00  0.00     0.052 C 
BRANCH  43  44
ATOM     44  C   UNK d   0     -18.172  -6.616  -5.392  0.00  0.00     0.115 C 
BRANCH  44  45
ATOM     45  C   UNK d   0     -18.087  -8.094  -5.260  0.00  0.00     0.139 C 
ATOM     46  O   UNK d   0     -17.230  -8.569  -4.474  0.00  0.00    -0.650 OA
BRANCH  45  47
ATOM     47  O   UNK d   0     -18.907  -8.954  -5.956  0.00  0.00    -0.776 OA
ATOM     48  H   UNK d   0     -19.807  -8.660  -6.370  0.00  0.00     0.167 HD
ENDBRANCH  45  47
ENDBRANCH  44  45
ENDBRANCH  43  44
ENDBRANCH  27  43
BRANCH  24  49
ATOM     49  C   UNK d   0     -18.596  -1.856  -3.369  0.00  0.00     0.052 C 
BRANCH  49  50
ATOM     50  C   UNK d   0     -19.934  -1.446  -3.928  0.00  0.00     0.115 C 
BRANCH  50  51
ATOM     51  C   UNK d   0     -20.250  -0.023  -3.919  0.00  0.00     0.139 C 
ATOM     52  O   UNK d   0     -21.101   0.485  -4.687  0.00  0.00    -0.650 OA
BRANCH  51  53
ATOM     53  O   UNK d   0     -19.593   0.820  -3.037  0.00  0.00    -0.776 OA
ATOM     54  H   UNK d   0     -20.147   1.386  -2.418  0.00  0.00     0.167 HD
ENDBRANCH  51  53
ENDBRANCH  50  51
ENDBRANCH  49  50
ENDBRANCH  24  49
BRANCH  21  55
ATOM     55  C   UNK d   0     -16.054  -0.109  -3.206  0.00  0.00     0.151 C 
BRANCH  55  56
ATOM     56  C   UNK d   0     -15.374  -0.845  -2.129  0.00  0.00     0.143 C 
ATOM     57  O   UNK d   0     -15.729  -0.777  -0.936  0.00  0.00    -0.650 OA
BRANCH  56  58
ATOM     58  O   UNK d   0     -14.288  -1.648  -2.476  0.00  0.00    -0.776 OA
ATOM     59  H   UNK d   0     -14.515  -2.440  -3.104  0.00  0.00     0.167 HD
ENDBRANCH  56  58
ENDBRANCH  55  56
ENDBRANCH  21  55
BRANCH  18  60
ATOM     60  C   UNK d   0     -13.286   1.666  -7.448  0.00  0.00     0.151 C 
BRANCH  60  61
ATOM     61  C   UNK d   0     -14.569   2.334  -7.714  0.00  0.00     0.143 C 
ATOM     62  O   UNK d   0     -15.230   2.286  -8.752  0.00  0.00    -0.650 OA
BRANCH  61  63
ATOM     63  O   UNK d   0     -15.077   3.110  -6.644  0.00  0.00    -0.776 OA
ATOM     64  H   UNK d   0     -16.006   3.490  -6.675  0.00  0.00     0.167 HD
ENDBRANCH  61  63
ENDBRANCH  60  61
ENDBRANCH  18  60
BRANCH  14  65
ATOM     65  C   UNK d   0     -12.264   0.721 -10.145  0.00  0.00     0.052 C 
BRANCH  65  66
ATOM     66  C   UNK d   0     -10.796   0.707  -9.904  0.00  0.00     0.115 C 
BRANCH  66  67
ATOM     67  C   UNK d   0     -10.016   1.878 -10.191  0.00  0.00     0.139 C 
ATOM     68  O   UNK d   0      -8.750   1.841  -9.972  0.00  0.00    -0.650 OA
BRANCH  67  69
ATOM     69  O   UNK d   0     -10.464   3.099 -10.694  0.00  0.00    -0.776 OA
ATOM     70  H   UNK d   0     -11.460   3.311 -10.536  0.00  0.00     0.167 HD
ENDBRANCH  67  69
ENDBRANCH  66  67
ENDBRANCH  65  66
ENDBRANCH  14  65
ENDBRANCH   6   7
ENDBRANCH   5   6
ENDBRANCH   2   5
TORSDOF 28
ENDMDL
MODEL 16
REMARK VINA RESULT:      -8.3      2.130     10.079
REMARK  28 active torsions:
REMARK  status: ('A' for Active; 'I' for Inactive)
REMARK    1  A    between atoms: C_2  and  O_3 
REMARK    2  A    between atoms: C_2  and  C_4 
REMARK    3  A    between atoms: C_4  and  C_5 
REMARK    4  A    between atoms: C_5  and  C_6 
REMARK    5  A    between atoms: C_7  and  C_8 
REMARK    6  A    between atoms: C_8  and  C_9 
REMARK    7  A    between atoms: C_9  and  O_11 
REMARK    8  A    between atoms: C_28  and  C_29 
REMARK    9  A    between atoms: C_29  and  C_30 
REMARK   10  A    between atoms: C_30  and  O_32 
REMARK   11  A    between atoms: C_33  and  C_34 
REMARK   12  A    between atoms: C_34  and  C_35 
REMARK   13  A    between atoms: C_35  and  C_36 
REMARK   14  A    between atoms: C_36  and  O_38 
REMARK   15  A    between atoms: C_39  and  C_40 
REMARK   16  A    between atoms: C_40  and  C_41 
REMARK   17  A    between atoms: C_41  and  C_42 
REMARK   18  A    between atoms: C_42  and  O_44 
REMARK   19  A    between atoms: C_45  and  C_46 
REMARK   20  A    between atoms: C_46  and  C_47 
REMARK   21  A    between atoms: C_47  and  O_49 
REMARK   22  A    between atoms: C_50  and  C_51 
REMARK   23  A    between atoms: C_51  and  C_52 
REMARK   24  A    between atoms: C_52  and  O_54 
REMARK   25  A    between atoms: C_55  and  C_56 
REMARK   26  A    between atoms: C_56  and  C_57 
REMARK   27  A    between atoms: C_57  and  C_58 
REMARK   28  A    between atoms: C_58  and  O_60 
ROOT
ATOM      1  O   UNK d   0      10.740  -8.079  17.373  0.00  0.00    -0.650 OA
ATOM      2  C   UNK d   0      10.968  -7.965  16.148  0.00  0.00     0.139 C 
ENDROOT
BRANCH   2   3
ATOM      3  O   UNK d   0      10.705  -9.024  15.312  0.00  0.00    -0.776 OA
ATOM      4  H   UNK d   0      10.447  -8.873  14.335  0.00  0.00     0.167 HD
ENDBRANCH   2   3
BRANCH   2   5
ATOM      5  C   UNK d   0      11.520  -6.691  15.605  0.00  0.00     0.115 C 
BRANCH   5   6
ATOM      6  C   UNK d   0      10.405  -5.822  15.091  0.00  0.00     0.052 C 
BRANCH   6   7
ATOM      7  C   UNK d   0      10.776  -5.093  13.821  0.00  0.00    -0.020 A 
ATOM      8  C   UNK d   0      11.295  -3.897  13.710  0.00  0.00    -0.011 A 
ATOM      9  C   UNK d   0      11.469  -3.617  12.294  0.00  0.00     0.067 A 
ATOM     10  C   UNK d   0      11.976  -2.557  11.527  0.00  0.00     0.062 C 
ATOM     11  N   UNK d   0      11.024  -4.695  11.615  0.00  0.00    -0.248 NA
ATOM     12  C   UNK d   0      12.321  -2.583  10.171  0.00  0.00     0.041 A 
ATOM     13  N   UNK d   0      11.699  -3.127   9.108  0.00  0.00    -0.355 N 
ATOM     14  C   UNK d   0      13.540  -2.008   9.768  0.00  0.00    -0.022 A 
ATOM     15  C   UNK d   0      12.495  -2.921   8.043  0.00  0.00     0.042 A 
ATOM     16  H   UNK d   0      10.707  -3.631   9.108  0.00  0.00     0.166 HD
ATOM     17  C   UNK d   0      12.325  -3.282   6.691  0.00  0.00     0.062 C 
ATOM     18  C   UNK d   0      13.660  -2.222   8.417  0.00  0.00    -0.013 A 
ATOM     19  C   UNK d   0      11.900  -4.475   6.164  0.00  0.00     0.067 A 
ATOM     20  N   UNK d   0      11.386  -5.364   7.018  0.00  0.00    -0.248 NA
ATOM     21  C   UNK d   0      11.867  -5.081   4.844  0.00  0.00    -0.011 A 
ATOM     22  C   UNK d   0      11.021  -6.508   6.352  0.00  0.00     0.066 A 
ATOM     23  C   UNK d   0      10.435  -7.506   7.117  0.00  0.00     0.062 C 
ATOM     24  C   UNK d   0      11.355  -6.272   4.961  0.00  0.00    -0.020 A 
ATOM     25  C   UNK d   0      10.085  -7.456   8.475  0.00  0.00     0.041 A 
ATOM     26  N   UNK d   0      10.711  -6.928   9.534  0.00  0.00    -0.355 N 
ATOM     27  C   UNK d   0       8.859  -8.029   8.878  0.00  0.00    -0.022 A 
ATOM     28  C   UNK d   0       9.923  -7.140  10.599  0.00  0.00     0.042 A 
ATOM     29  H   UNK d   0      11.712  -6.431   9.534  0.00  0.00     0.166 HD
ATOM     30  C   UNK d   0      10.083  -6.795  11.950  0.00  0.00     0.062 C 
ATOM     31  C   UNK d   0       8.748  -7.833  10.220  0.00  0.00    -0.013 A 
ATOM     32  C   UNK d   0      10.594  -5.619  12.476  0.00  0.00     0.066 A 
BRANCH   8  33
ATOM     33  C   UNK d   0      11.644  -2.978  14.809  0.00  0.00     0.151 C 
BRANCH  33  34
ATOM     34  C   UNK d   0      13.033  -2.493  14.728  0.00  0.00     0.143 C 
ATOM     35  O   UNK d   0      13.299  -1.294  14.895  0.00  0.00    -0.650 OA
BRANCH  34  36
ATOM     36  O   UNK d   0      14.046  -3.385  14.462  0.00  0.00    -0.776 OA
ATOM     37  H   UNK d   0      14.839  -3.128  13.859  0.00  0.00     0.167 HD
ENDBRANCH  34  36
ENDBRANCH  33  34
ENDBRANCH   8  33
BRANCH  31  38
ATOM     38  C   UNK d   0       7.591  -8.264  11.091  0.00  0.00     0.151 C 
BRANCH  38  39
ATOM     39  C   UNK d   0       6.531  -7.281  11.144  0.00  0.00     0.143 C 
ATOM     40  O   UNK d   0       5.650  -7.299  12.022  0.00  0.00    -0.650 OA
BRANCH  39  41
ATOM     41  O   UNK d   0       6.483  -6.270  10.184  0.00  0.00    -0.776 OA
ATOM     42  H   UNK d   0       6.420  -5.308  10.530  0.00  0.00     0.167 HD
ENDBRANCH  39  41
ENDBRANCH  38  39
ENDBRANCH  31  38
BRANCH  27  43
ATOM     43  C   UNK d   0       7.816  -8.740   8.053  0.00  0.00     0.052 C 
BRANCH  43  44
ATOM     44  C   UNK d   0       8.183 -10.151   7.726  0.00  0.00     0.115 C 
BRANCH  44  45
ATOM     45  C   UNK d   0       7.352 -11.019   8.600  0.00  0.00     0.139 C 
ATOM     46  O   UNK d   0       7.718 -12.208   8.773  0.00  0.00    -0.650 OA
BRANCH  45  47
ATOM     47  O   UNK d   0       6.209 -10.573   9.227  0.00  0.00    -0.776 OA
ATOM     48  H   UNK d   0       6.182 -10.317  10.227  0.00  0.00     0.167 HD
ENDBRANCH  45  47
ENDBRANCH  44  45
ENDBRANCH  43  44
ENDBRANCH  27  43
BRANCH  24  49
ATOM     49  C   UNK d   0      11.102  -7.221   3.863  0.00  0.00     0.052 C 
BRANCH  49  50
ATOM     50  C   UNK d   0      12.403  -7.715   3.286  0.00  0.00     0.115 C 
BRANCH  50  51
ATOM     51  C   UNK d   0      12.633  -7.482   1.867  0.00  0.00     0.139 C 
ATOM     52  O   UNK d   0      13.679  -7.849   1.282  0.00  0.00    -0.650 OA
BRANCH  51  53
ATOM     53  O   UNK d   0      11.670  -6.828   1.114  0.00  0.00    -0.776 OA
ATOM     54  H   UNK d   0      10.705  -7.062   1.269  0.00  0.00     0.167 HD
ENDBRANCH  51  53
ENDBRANCH  50  51
ENDBRANCH  49  50
ENDBRANCH  24  49
BRANCH  21  55
ATOM     55  C   UNK d   0      12.346  -4.405   3.602  0.00  0.00     0.151 C 
BRANCH  55  56
ATOM     56  C   UNK d   0      13.762  -4.019   3.696  0.00  0.00     0.143 C 
ATOM     57  O   UNK d   0      14.681  -4.850   3.831  0.00  0.00    -0.650 OA
BRANCH  56  58
ATOM     58  O   UNK d   0      14.071  -2.661   3.629  0.00  0.00    -0.776 OA
ATOM     59  H   UNK d   0      14.645  -2.305   4.414  0.00  0.00     0.167 HD
ENDBRANCH  56  58
ENDBRANCH  55  56
ENDBRANCH  21  55
BRANCH  18  60
ATOM     60  C   UNK d   0      14.826  -1.776   7.571  0.00  0.00     0.151 C 
BRANCH  60  61
ATOM     61  C   UNK d   0      15.827  -2.851   7.665  0.00  0.00     0.143 C 
ATOM     62  O   UNK d   0      15.705  -4.014   7.280  0.00  0.00    -0.650 OA
BRANCH  61  63
ATOM     63  O   UNK d   0      17.054  -2.480   8.266  0.00  0.00    -0.776 OA
ATOM     64  H   UNK d   0      17.425  -2.995   9.045  0.00  0.00     0.167 HD
ENDBRANCH  61  63
ENDBRANCH  60  61
ENDBRANCH  18  60
BRANCH  14  65
ATOM     65  C   UNK d   0      14.543  -1.196  10.536  0.00  0.00     0.052 C 
BRANCH  65  66
ATOM     66  C   UNK d   0      15.207  -1.966  11.621  0.00  0.00     0.115 C 
BRANCH  66  67
ATOM     67  C   UNK d   0      16.551  -2.437  11.440  0.00  0.00     0.139 C 
ATOM     68  O   UNK d   0      17.517  -1.734  11.915  0.00  0.00    -0.650 OA
BRANCH  67  69
ATOM     69  O   UNK d   0      16.968  -3.600  10.792  0.00  0.00    -0.776 OA
ATOM     70  H   UNK d   0      16.897  -4.468  11.342  0.00  0.00     0.167 HD
ENDBRANCH  67  69
ENDBRANCH  66  67
ENDBRANCH  65  66
ENDBRANCH  14  65
ENDBRANCH   6   7
ENDBRANCH   5   6
ENDBRANCH   2   5
TORSDOF 28
ENDMDL
MODEL 17
REMARK VINA RESULT:      -8.3     30.124     33.684
REMARK  28 active torsions:
REMARK  status: ('A' for Active; 'I' for Inactive)
REMARK    1  A    between atoms: C_2  and  O_3 
REMARK    2  A    between atoms: C_2  and  C_4 
REMARK    3  A    between atoms: C_4  and  C_5 
REMARK    4  A    between atoms: C_5  and  C_6 
REMARK    5  A    between atoms: C_7  and  C_8 
REMARK    6  A    between atoms: C_8  and  C_9 
REMARK    7  A    between atoms: C_9  and  O_11 
REMARK    8  A    between atoms: C_28  and  C_29 
REMARK    9  A    between atoms: C_29  and  C_30 
REMARK   10  A    between atoms: C_30  and  O_32 
REMARK   11  A    between atoms: C_33  and  C_34 
REMARK   12  A    between atoms: C_34  and  C_35 
REMARK   13  A    between atoms: C_35  and  C_36 
REMARK   14  A    between atoms: C_36  and  O_38 
REMARK   15  A    between atoms: C_39  and  C_40 
REMARK   16  A    between atoms: C_40  and  C_41 
REMARK   17  A    between atoms: C_41  and  C_42 
REMARK   18  A    between atoms: C_42  and  O_44 
REMARK   19  A    between atoms: C_45  and  C_46 
REMARK   20  A    between atoms: C_46  and  C_47 
REMARK   21  A    between atoms: C_47  and  O_49 
REMARK   22  A    between atoms: C_50  and  C_51 
REMARK   23  A    between atoms: C_51  and  C_52 
REMARK   24  A    between atoms: C_52  and  O_54 
REMARK   25  A    between atoms: C_55  and  C_56 
REMARK   26  A    between atoms: C_56  and  C_57 
REMARK   27  A    between atoms: C_57  and  C_58 
REMARK   28  A    between atoms: C_58  and  O_60 
ROOT
ATOM      1  O   UNK d   0     -12.776   6.374  -6.645  0.00  0.00    -0.650 OA
ATOM      2  C   UNK d   0     -11.869   5.530  -6.472  0.00  0.00     0.139 C 
ENDROOT
BRANCH   2   3
ATOM      3  O   UNK d   0     -10.556   5.929  -6.532  0.00  0.00    -0.776 OA
ATOM      4  H   UNK d   0      -9.795   5.248  -6.490  0.00  0.00     0.167 HD
ENDBRANCH   2   3
BRANCH   2   5
ATOM      5  C   UNK d   0     -12.216   4.105  -6.202  0.00  0.00     0.115 C 
BRANCH   5   6
ATOM      6  C   UNK d   0     -13.706   3.952  -6.066  0.00  0.00     0.052 C 
BRANCH   6   7
ATOM      7  C   UNK d   0     -14.150   2.510  -6.128  0.00  0.00    -0.020 A 
ATOM      8  C   UNK d   0     -14.672   1.793  -5.165  0.00  0.00    -0.011 A 
ATOM      9  C   UNK d   0     -14.929   0.463  -5.691  0.00  0.00     0.067 A 
ATOM     10  C   UNK d   0     -15.479  -0.731  -5.199  0.00  0.00     0.062 C 
ATOM     11  N   UNK d   0     -14.528   0.456  -6.979  0.00  0.00    -0.248 NA
ATOM     12  C   UNK d   0     -15.904  -1.838  -5.942  0.00  0.00     0.041 A 
ATOM     13  N   UNK d   0     -15.348  -2.464  -6.996  0.00  0.00    -0.355 N 
ATOM     14  C   UNK d   0     -17.144  -2.428  -5.635  0.00  0.00    -0.022 A 
ATOM     15  C   UNK d   0     -16.206  -3.431  -7.372  0.00  0.00     0.042 A 
ATOM     16  H   UNK d   0     -14.359  -2.240  -7.454  0.00  0.00     0.166 HD
ATOM     17  C   UNK d   0     -16.118  -4.377  -8.413  0.00  0.00     0.062 C 
ATOM     18  C   UNK d   0     -17.344  -3.439  -6.542  0.00  0.00    -0.013 A 
ATOM     19  C   UNK d   0     -15.728  -4.192  -9.714  0.00  0.00     0.067 A 
ATOM     20  N   UNK d   0     -15.166  -3.019 -10.017  0.00  0.00    -0.248 NA
ATOM     21  C   UNK d   0     -15.775  -4.973 -10.940  0.00  0.00    -0.011 A 
ATOM     22  C   UNK d   0     -14.844  -2.975 -11.352  0.00  0.00     0.066 A 
ATOM     23  C   UNK d   0     -14.216  -1.821 -11.796  0.00  0.00     0.062 C 
ATOM     24  C   UNK d   0     -15.260  -4.253 -11.895  0.00  0.00    -0.020 A 
ATOM     25  C   UNK d   0     -13.786  -0.726 -11.031  0.00  0.00     0.041 A 
ATOM     26  N   UNK d   0     -14.346  -0.094  -9.992  0.00  0.00    -0.355 N 
ATOM     27  C   UNK d   0     -12.540  -0.137 -11.336  0.00  0.00    -0.022 A 
ATOM     28  C   UNK d   0     -13.496   0.876  -9.622  0.00  0.00     0.042 A 
ATOM     29  H   UNK d   0     -15.344  -0.314  -9.541  0.00  0.00     0.166 HD
ATOM     30  C   UNK d   0     -13.575   1.830  -8.594  0.00  0.00     0.062 C 
ATOM     31  C   UNK d   0     -12.348   0.877 -10.449  0.00  0.00    -0.013 A 
ATOM     32  C   UNK d   0     -14.050   1.658  -7.304  0.00  0.00     0.066 A 
BRANCH   8  33
ATOM     33  C   UNK d   0     -14.952   2.234  -3.786  0.00  0.00     0.151 C 
BRANCH  33  34
ATOM     34  C   UNK d   0     -13.799   2.057  -2.886  0.00  0.00     0.143 C 
ATOM     35  O   UNK d   0     -13.605   0.981  -2.303  0.00  0.00    -0.650 OA
BRANCH  34  36
ATOM     36  O   UNK d   0     -12.928   3.105  -2.690  0.00  0.00    -0.776 OA
ATOM     37  H   UNK d   0     -11.917   2.946  -2.582  0.00  0.00     0.167 HD
ENDBRANCH  34  36
ENDBRANCH  33  34
ENDBRANCH   8  33
BRANCH  31  38
ATOM     38  C   UNK d   0     -11.142   1.785 -10.380  0.00  0.00     0.151 C 
BRANCH  38  39
ATOM     39  C   UNK d   0     -10.237   1.437  -9.306  0.00  0.00     0.143 C 
ATOM     40  O   UNK d   0      -9.748   0.299  -9.190  0.00  0.00    -0.650 OA
BRANCH  39  41
ATOM     41  O   UNK d   0      -9.893   2.401  -8.359  0.00  0.00    -0.776 OA
ATOM     42  H   UNK d   0      -8.892   2.539  -8.184  0.00  0.00     0.167 HD
ENDBRANCH  39  41
ENDBRANCH  38  39
ENDBRANCH  31  38
BRANCH  27  43
ATOM     43  C   UNK d   0     -11.550  -0.494 -12.417  0.00  0.00     0.052 C 
BRANCH  43  44
ATOM     44  C   UNK d   0     -11.802   0.215 -13.707  0.00  0.00     0.115 C 
BRANCH  44  45
ATOM     45  C   UNK d   0     -10.563   0.970 -14.026  0.00  0.00     0.139 C 
ATOM     46  O   UNK d   0     -10.574   1.733 -15.024  0.00  0.00    -0.650 OA
BRANCH  45  47
ATOM     47  O   UNK d   0      -9.413   0.871 -13.273  0.00  0.00    -0.776 OA
ATOM     48  H   UNK d   0      -9.422   0.791 -12.243  0.00  0.00     0.167 HD
ENDBRANCH  45  47
ENDBRANCH  44  45
ENDBRANCH  43  44
ENDBRANCH  27  43
BRANCH  24  49
ATOM     49  C   UNK d   0     -15.075  -4.672 -13.295  0.00  0.00     0.052 C 
BRANCH  49  50
ATOM     50  C   UNK d   0     -13.842  -5.528 -13.427  0.00  0.00     0.115 C 
BRANCH  50  51
ATOM     51  C   UNK d   0     -12.596  -4.851 -13.762  0.00  0.00     0.139 C 
ATOM     52  O   UNK d   0     -11.471  -5.363 -13.552  0.00  0.00    -0.650 OA
BRANCH  51  53
ATOM     53  O   UNK d   0     -12.633  -3.588 -14.333  0.00  0.00    -0.776 OA
ATOM     54  H   UNK d   0     -12.366  -2.802 -13.766  0.00  0.00     0.167 HD
ENDBRANCH  51  53
ENDBRANCH  50  51
ENDBRANCH  49  50
ENDBRANCH  24  49
BRANCH  21  55
ATOM     55  C   UNK d   0     -16.326  -6.357 -11.027  0.00  0.00     0.151 C 
BRANCH  55  56
ATOM     56  C   UNK d   0     -15.527  -7.319 -10.252  0.00  0.00     0.143 C 
ATOM     57  O   UNK d   0     -14.315  -7.518 -10.467  0.00  0.00    -0.650 OA
BRANCH  56  58
ATOM     58  O   UNK d   0     -16.168  -8.028  -9.238  0.00  0.00    -0.776 OA
ATOM     59  H   UNK d   0     -16.256  -7.520  -8.339  0.00  0.00     0.167 HD
ENDBRANCH  56  58
ENDBRANCH  55  56
ENDBRANCH  21  55
BRANCH  18  60
ATOM     60  C   UNK d   0     -18.558  -4.334  -6.585  0.00  0.00     0.151 C 
BRANCH  60  61
ATOM     61  C   UNK d   0     -18.141  -5.610  -5.985  0.00  0.00     0.143 C 
ATOM     62  O   UNK d   0     -17.953  -5.841  -4.790  0.00  0.00    -0.650 OA
BRANCH  61  63
ATOM     63  O   UNK d   0     -17.943  -6.670  -6.901  0.00  0.00    -0.776 OA
ATOM     64  H   UNK d   0     -17.158  -7.292  -6.812  0.00  0.00     0.167 HD
ENDBRANCH  61  63
ENDBRANCH  60  61
ENDBRANCH  18  60
BRANCH  14  65
ATOM     65  C   UNK d   0     -18.097  -2.176  -4.502  0.00  0.00     0.052 C 
BRANCH  65  66
ATOM     66  C   UNK d   0     -19.197  -1.242  -4.864  0.00  0.00     0.115 C 
BRANCH  66  67
ATOM     67  C   UNK d   0     -19.867  -0.498  -3.835  0.00  0.00     0.139 C 
ATOM     68  O   UNK d   0     -20.977  -0.954  -3.373  0.00  0.00    -0.650 OA
BRANCH  67  69
ATOM     69  O   UNK d   0     -19.462   0.699  -3.245  0.00  0.00    -0.776 OA
ATOM     70  H   UNK d   0     -19.066   0.620  -2.297  0.00  0.00     0.167 HD
ENDBRANCH  67  69
ENDBRANCH  66  67
ENDBRANCH  65  66
ENDBRANCH  14  65
ENDBRANCH   6   7
ENDBRANCH   5   6
ENDBRANCH   2   5
TORSDOF 28
ENDMDL
MODEL 18
REMARK VINA RESULT:      -8.3      1.156      7.295
REMARK  28 active torsions:
REMARK  status: ('A' for Active; 'I' for Inactive)
REMARK    1  A    between atoms: C_2  and  O_3 
REMARK    2  A    between atoms: C_2  and  C_4 
REMARK    3  A    between atoms: C_4  and  C_5 
REMARK    4  A    between atoms: C_5  and  C_6 
REMARK    5  A    between atoms: C_7  and  C_8 
REMARK    6  A    between atoms: C_8  and  C_9 
REMARK    7  A    between atoms: C_9  and  O_11 
REMARK    8  A    between atoms: C_28  and  C_29 
REMARK    9  A    between atoms: C_29  and  C_30 
REMARK   10  A    between atoms: C_30  and  O_32 
REMARK   11  A    between atoms: C_33  and  C_34 
REMARK   12  A    between atoms: C_34  and  C_35 
REMARK   13  A    between atoms: C_35  and  C_36 
REMARK   14  A    between atoms: C_36  and  O_38 
REMARK   15  A    between atoms: C_39  and  C_40 
REMARK   16  A    between atoms: C_40  and  C_41 
REMARK   17  A    between atoms: C_41  and  C_42 
REMARK   18  A    between atoms: C_42  and  O_44 
REMARK   19  A    between atoms: C_45  and  C_46 
REMARK   20  A    between atoms: C_46  and  C_47 
REMARK   21  A    between atoms: C_47  and  O_49 
REMARK   22  A    between atoms: C_50  and  C_51 
REMARK   23  A    between atoms: C_51  and  C_52 
REMARK   24  A    between atoms: C_52  and  O_54 
REMARK   25  A    between atoms: C_55  and  C_56 
REMARK   26  A    between atoms: C_56  and  C_57 
REMARK   27  A    between atoms: C_57  and  C_58 
REMARK   28  A    between atoms: C_58  and  O_60 
ROOT
ATOM      1  O   UNK d   0      11.096  -2.163   4.592  0.00  0.00    -0.650 OA
ATOM      2  C   UNK d   0      12.313  -2.422   4.717  0.00  0.00     0.139 C 
ENDROOT
BRANCH   2   3
ATOM      3  O   UNK d   0      12.841  -3.510   4.063  0.00  0.00    -0.776 OA
ATOM      4  H   UNK d   0      13.745  -3.453   3.591  0.00  0.00     0.167 HD
ENDBRANCH   2   3
BRANCH   2   5
ATOM      5  C   UNK d   0      13.179  -1.559   5.570  0.00  0.00     0.115 C 
BRANCH   5   6
ATOM      6  C   UNK d   0      14.309  -2.367   6.147  0.00  0.00     0.052 C 
BRANCH   6   7
ATOM      7  C   UNK d   0      14.162  -2.595   7.632  0.00  0.00    -0.020 A 
ATOM      8  C   UNK d   0      14.870  -2.063   8.595  0.00  0.00    -0.011 A 
ATOM      9  C   UNK d   0      14.369  -2.585   9.856  0.00  0.00     0.067 A 
ATOM     10  C   UNK d   0      14.668  -2.405  11.216  0.00  0.00     0.062 C 
ATOM     11  N   UNK d   0      13.360  -3.433   9.566  0.00  0.00    -0.248 NA
ATOM     12  C   UNK d   0      13.886  -2.787  12.312  0.00  0.00     0.041 A 
ATOM     13  N   UNK d   0      13.193  -3.916  12.556  0.00  0.00    -0.355 N 
ATOM     14  C   UNK d   0      13.696  -1.873  13.364  0.00  0.00    -0.022 A 
ATOM     15  C   UNK d   0      12.561  -3.737  13.732  0.00  0.00     0.042 A 
ATOM     16  H   UNK d   0      13.166  -4.827  11.920  0.00  0.00     0.166 HD
ATOM     17  C   UNK d   0      11.708  -4.599  14.450  0.00  0.00     0.062 C 
ATOM     18  C   UNK d   0      12.852  -2.468  14.268  0.00  0.00    -0.013 A 
ATOM     19  C   UNK d   0      10.670  -5.367  13.988  0.00  0.00     0.067 A 
ATOM     20  N   UNK d   0      10.551  -5.489  12.664  0.00  0.00    -0.248 NA
ATOM     21  C   UNK d   0       9.584  -6.125  14.587  0.00  0.00    -0.011 A 
ATOM     22  C   UNK d   0       9.465  -6.270  12.353  0.00  0.00     0.066 A 
ATOM     23  C   UNK d   0       9.244  -6.511  11.005  0.00  0.00     0.062 C 
ATOM     24  C   UNK d   0       8.880  -6.647  13.625  0.00  0.00    -0.020 A 
ATOM     25  C   UNK d   0      10.048  -6.129   9.920  0.00  0.00     0.041 A 
ATOM     26  N   UNK d   0      10.725  -5.002   9.670  0.00  0.00    -0.355 N 
ATOM     27  C   UNK d   0      10.242  -7.049   8.867  0.00  0.00    -0.022 A 
ATOM     28  C   UNK d   0      11.350  -5.174   8.494  0.00  0.00     0.042 A 
ATOM     29  H   UNK d   0      10.743  -4.082  10.306  0.00  0.00     0.166 HD
ATOM     30  C   UNK d   0      12.193  -4.322   7.764  0.00  0.00     0.062 C 
ATOM     31  C   UNK d   0      11.065  -6.454   7.961  0.00  0.00    -0.013 A 
ATOM     32  C   UNK d   0      13.185  -3.483   8.245  0.00  0.00     0.066 A 
BRANCH   8  33
ATOM     33  C   UNK d   0      15.983  -1.107   8.451  0.00  0.00     0.151 C 
BRANCH  33  34
ATOM     34  C   UNK d   0      17.299  -1.722   8.704  0.00  0.00     0.143 C 
ATOM     35  O   UNK d   0      17.390  -2.904   9.065  0.00  0.00    -0.650 OA
BRANCH  34  36
ATOM     36  O   UNK d   0      18.439  -0.970   8.537  0.00  0.00    -0.776 OA
ATOM     37  H   UNK d   0      19.280  -1.366   8.096  0.00  0.00     0.167 HD
ENDBRANCH  34  36
ENDBRANCH  33  34
ENDBRANCH   8  33
BRANCH  31  38
ATOM     38  C   UNK d   0      11.564  -7.065   6.672  0.00  0.00     0.151 C 
BRANCH  38  39
ATOM     39  C   UNK d   0      10.778  -6.670   5.523  0.00  0.00     0.143 C 
ATOM     40  O   UNK d   0      11.090  -5.705   4.803  0.00  0.00    -0.650 OA
BRANCH  39  41
ATOM     41  O   UNK d   0       9.628  -7.388   5.198  0.00  0.00    -0.776 OA
ATOM     42  H   UNK d   0       8.903  -6.888   4.674  0.00  0.00     0.167 HD
ENDBRANCH  39  41
ENDBRANCH  38  39
ENDBRANCH  31  38
BRANCH  27  43
ATOM     43  C   UNK d   0       9.685  -8.440   8.695  0.00  0.00     0.052 C 
BRANCH  43  44
ATOM     44  C   UNK d   0       8.315  -8.459   8.100  0.00  0.00     0.115 C 
BRANCH  44  45
ATOM     45  C   UNK d   0       7.521  -9.433   8.892  0.00  0.00     0.139 C 
ATOM     46  O   UNK d   0       6.987 -10.394   8.285  0.00  0.00    -0.650 OA
BRANCH  45  47
ATOM     47  O   UNK d   0       7.354  -9.327  10.256  0.00  0.00    -0.776 OA
ATOM     48  H   UNK d   0       7.196  -8.424  10.733  0.00  0.00     0.167 HD
ENDBRANCH  45  47
ENDBRANCH  44  45
ENDBRANCH  43  44
ENDBRANCH  27  43
BRANCH  24  49
ATOM     49  C   UNK d   0       7.707  -7.524  13.784  0.00  0.00     0.052 C 
BRANCH  49  50
ATOM     50  C   UNK d   0       8.139  -8.964  13.891  0.00  0.00     0.115 C 
BRANCH  50  51
ATOM     51  C   UNK d   0       7.091  -9.975  13.879  0.00  0.00     0.139 C 
ATOM     52  O   UNK d   0       6.295 -10.113  12.920  0.00  0.00    -0.650 OA
BRANCH  51  53
ATOM     53  O   UNK d   0       6.947 -10.828  14.963  0.00  0.00    -0.776 OA
ATOM     54  H   UNK d   0       6.096 -10.782  15.495  0.00  0.00     0.167 HD
ENDBRANCH  51  53
ENDBRANCH  50  51
ENDBRANCH  49  50
ENDBRANCH  24  49
BRANCH  21  55
ATOM     55  C   UNK d   0       9.366  -6.251  16.058  0.00  0.00     0.151 C 
BRANCH  55  56
ATOM     56  C   UNK d   0      10.193  -7.315  16.649  0.00  0.00     0.143 C 
ATOM     57  O   UNK d   0      11.107  -7.886  16.022  0.00  0.00    -0.650 OA
BRANCH  56  58
ATOM     58  O   UNK d   0       9.929  -7.686  17.966  0.00  0.00    -0.776 OA
ATOM     59  H   UNK d   0       8.972  -7.469  18.297  0.00  0.00     0.167 HD
ENDBRANCH  56  58
ENDBRANCH  55  56
ENDBRANCH  21  55
BRANCH  18  60
ATOM     60  C   UNK d   0      12.372  -1.834  15.550  0.00  0.00     0.151 C 
BRANCH  60  61
ATOM     61  C   UNK d   0      10.997  -1.383  15.288  0.00  0.00     0.143 C 
ATOM     62  O   UNK d   0      10.637  -0.533  14.474  0.00  0.00    -0.650 OA
BRANCH  61  63
ATOM     63  O   UNK d   0       9.998  -2.013  16.070  0.00  0.00    -0.776 OA
ATOM     64  H   UNK d   0       9.385  -2.701  15.671  0.00  0.00     0.167 HD
ENDBRANCH  61  63
ENDBRANCH  60  61
ENDBRANCH  18  60
BRANCH  14  65
ATOM     65  C   UNK d   0      14.323  -0.532  13.624  0.00  0.00     0.052 C 
BRANCH  65  66
ATOM     66  C   UNK d   0      13.514   0.600  13.097  0.00  0.00     0.115 C 
BRANCH  66  67
ATOM     67  C   UNK d   0      14.078   1.480  12.113  0.00  0.00     0.139 C 
ATOM     68  O   UNK d   0      14.584   0.967  11.048  0.00  0.00    -0.650 OA
BRANCH  67  69
ATOM     69  O   UNK d   0      14.156   2.872  12.159  0.00  0.00    -0.776 OA
ATOM     70  H   UNK d   0      15.106   3.265  12.231  0.00  0.00     0.167 HD
ENDBRANCH  67  69
ENDBRANCH  66  67
ENDBRANCH  65  66
ENDBRANCH  14  65
ENDBRANCH   6   7
ENDBRANCH   5   6
ENDBRANCH   2   5
TORSDOF 28
ENDMDL
MODEL 19
REMARK VINA RESULT:      -8.2     29.916     33.803
REMARK  28 active torsions:
REMARK  status: ('A' for Active; 'I' for Inactive)
REMARK    1  A    between atoms: C_2  and  O_3 
REMARK    2  A    between atoms: C_2  and  C_4 
REMARK    3  A    between atoms: C_4  and  C_5 
REMARK    4  A    between atoms: C_5  and  C_6 
REMARK    5  A    between atoms: C_7  and  C_8 
REMARK    6  A    between atoms: C_8  and  C_9 
REMARK    7  A    between atoms: C_9  and  O_11 
REMARK    8  A    between atoms: C_28  and  C_29 
REMARK    9  A    between atoms: C_29  and  C_30 
REMARK   10  A    between atoms: C_30  and  O_32 
REMARK   11  A    between atoms: C_33  and  C_34 
REMARK   12  A    between atoms: C_34  and  C_35 
REMARK   13  A    between atoms: C_35  and  C_36 
REMARK   14  A    between atoms: C_36  and  O_38 
REMARK   15  A    between atoms: C_39  and  C_40 
REMARK   16  A    between atoms: C_40  and  C_41 
REMARK   17  A    between atoms: C_41  and  C_42 
REMARK   18  A    between atoms: C_42  and  O_44 
REMARK   19  A    between atoms: C_45  and  C_46 
REMARK   20  A    between atoms: C_46  and  C_47 
REMARK   21  A    between atoms: C_47  and  O_49 
REMARK   22  A    between atoms: C_50  and  C_51 
REMARK   23  A    between atoms: C_51  and  C_52 
REMARK   24  A    between atoms: C_52  and  O_54 
REMARK   25  A    between atoms: C_55  and  C_56 
REMARK   26  A    between atoms: C_56  and  C_57 
REMARK   27  A    between atoms: C_57  and  C_58 
REMARK   28  A    between atoms: C_58  and  O_60 
ROOT
ATOM      1  O   UNK d   0     -11.601  -1.548 -13.785  0.00  0.00    -0.650 OA
ATOM      2  C   UNK d   0     -12.440  -1.896 -14.645  0.00  0.00     0.139 C 
ENDROOT
BRANCH   2   3
ATOM      3  O   UNK d   0     -12.553  -1.172 -15.808  0.00  0.00    -0.776 OA
ATOM      4  H   UNK d   0     -12.319  -1.587 -16.712  0.00  0.00     0.167 HD
ENDBRANCH   2   3
BRANCH   2   5
ATOM      5  C   UNK d   0     -13.308  -3.084 -14.406  0.00  0.00     0.115 C 
BRANCH   5   6
ATOM      6  C   UNK d   0     -12.963  -3.720 -13.087  0.00  0.00     0.052 C 
BRANCH   6   7
ATOM      7  C   UNK d   0     -14.129  -3.739 -12.128  0.00  0.00    -0.020 A 
ATOM      8  C   UNK d   0     -15.220  -4.457 -12.212  0.00  0.00    -0.011 A 
ATOM      9  C   UNK d   0     -16.055  -4.133 -11.068  0.00  0.00     0.067 A 
ATOM     10  C   UNK d   0     -17.299  -4.552 -10.571  0.00  0.00     0.062 C 
ATOM     11  N   UNK d   0     -15.398  -3.204 -10.343  0.00  0.00    -0.248 NA
ATOM     12  C   UNK d   0     -17.821  -4.324  -9.293  0.00  0.00     0.041 A 
ATOM     13  N   UNK d   0     -17.820  -3.223  -8.518  0.00  0.00    -0.355 N 
ATOM     14  C   UNK d   0     -18.422  -5.393  -8.603  0.00  0.00    -0.022 A 
ATOM     15  C   UNK d   0     -18.397  -3.568  -7.351  0.00  0.00     0.042 A 
ATOM     16  H   UNK d   0     -17.437  -2.217  -8.797  0.00  0.00     0.166 HD
ATOM     17  C   UNK d   0     -18.651  -2.802  -6.196  0.00  0.00     0.062 C 
ATOM     18  C   UNK d   0     -18.787  -4.921  -7.367  0.00  0.00    -0.013 A 
ATOM     19  C   UNK d   0     -17.824  -1.921  -5.547  0.00  0.00     0.067 A 
ATOM     20  N   UNK d   0     -16.698  -1.573  -6.176  0.00  0.00    -0.248 NA
ATOM     21  C   UNK d   0     -17.833  -1.226  -4.270  0.00  0.00    -0.011 A 
ATOM     22  C   UNK d   0     -15.970  -0.703  -5.402  0.00  0.00     0.066 A 
ATOM     23  C   UNK d   0     -14.789  -0.229  -5.953  0.00  0.00     0.062 C 
ATOM     24  C   UNK d   0     -16.744  -0.519  -4.190  0.00  0.00    -0.020 A 
ATOM     25  C   UNK d   0     -14.289  -0.459  -7.244  0.00  0.00     0.041 A 
ATOM     26  N   UNK d   0     -14.276  -1.557  -8.009  0.00  0.00    -0.355 N 
ATOM     27  C   UNK d   0     -13.690   0.616  -7.938  0.00  0.00    -0.022 A 
ATOM     28  C   UNK d   0     -13.693  -1.218  -9.170  0.00  0.00     0.042 A 
ATOM     29  H   UNK d   0     -14.652  -2.570  -7.723  0.00  0.00     0.166 HD
ATOM     30  C   UNK d   0     -13.426  -1.972 -10.323  0.00  0.00     0.062 C 
ATOM     31  C   UNK d   0     -13.311   0.145  -9.157  0.00  0.00    -0.013 A 
ATOM     32  C   UNK d   0     -14.232  -2.924 -10.927  0.00  0.00     0.066 A 
BRANCH   8  33
ATOM     33  C   UNK d   0     -15.564  -5.424 -13.271  0.00  0.00     0.151 C 
BRANCH  33  34
ATOM     34  C   UNK d   0     -15.091  -6.788 -12.973  0.00  0.00     0.143 C 
ATOM     35  O   UNK d   0     -14.039  -7.219 -13.468  0.00  0.00    -0.650 OA
BRANCH  34  36
ATOM     36  O   UNK d   0     -15.830  -7.592 -12.136  0.00  0.00    -0.776 OA
ATOM     37  H   UNK d   0     -15.660  -8.605 -12.081  0.00  0.00     0.167 HD
ENDBRANCH  34  36
ENDBRANCH  33  34
ENDBRANCH   8  33
BRANCH  31  38
ATOM     38  C   UNK d   0     -12.639   0.941 -10.251  0.00  0.00     0.151 C 
BRANCH  38  39
ATOM     39  C   UNK d   0     -11.212   0.708 -10.319  0.00  0.00     0.143 C 
ATOM     40  O   UNK d   0     -10.469   0.830  -9.329  0.00  0.00    -0.650 OA
BRANCH  39  41
ATOM     41  O   UNK d   0     -10.635   0.331 -11.532  0.00  0.00    -0.776 OA
ATOM     42  H   UNK d   0     -10.460  -0.669 -11.669  0.00  0.00     0.167 HD
ENDBRANCH  39  41
ENDBRANCH  38  39
ENDBRANCH  31  38
BRANCH  27  43
ATOM     43  C   UNK d   0     -13.469   2.040  -7.492  0.00  0.00     0.052 C 
BRANCH  43  44
ATOM     44  C   UNK d   0     -14.633   2.934  -7.773  0.00  0.00     0.115 C 
BRANCH  44  45
ATOM     45  C   UNK d   0     -14.370   4.211  -7.059  0.00  0.00     0.139 C 
ATOM     46  O   UNK d   0     -14.478   4.221  -5.807  0.00  0.00    -0.650 OA
BRANCH  45  47
ATOM     47  O   UNK d   0     -14.010   5.371  -7.709  0.00  0.00    -0.776 OA
ATOM     48  H   UNK d   0     -13.215   5.421  -8.367  0.00  0.00     0.167 HD
ENDBRANCH  45  47
ENDBRANCH  44  45
ENDBRANCH  43  44
ENDBRANCH  27  43
BRANCH  24  49
ATOM     49  C   UNK d   0     -16.366   0.371  -3.078  0.00  0.00     0.052 C 
BRANCH  49  50
ATOM     50  C   UNK d   0     -15.434  -0.341  -2.131  0.00  0.00     0.115 C 
BRANCH  50  51
ATOM     51  C   UNK d   0     -14.010  -0.067  -2.268  0.00  0.00     0.139 C 
ATOM     52  O   UNK d   0     -13.564   1.071  -2.550  0.00  0.00    -0.650 OA
BRANCH  51  53
ATOM     53  O   UNK d   0     -13.093  -1.091  -2.086  0.00  0.00    -0.776 OA
ATOM     54  H   UNK d   0     -13.441  -2.029  -1.996  0.00  0.00     0.167 HD
ENDBRANCH  51  53
ENDBRANCH  50  51
ENDBRANCH  49  50
ENDBRANCH  24  49
BRANCH  21  55
ATOM     55  C   UNK d   0     -18.932  -1.340  -3.266  0.00  0.00     0.151 C 
BRANCH  55  56
ATOM     56  C   UNK d   0     -20.032  -0.403  -3.544  0.00  0.00     0.143 C 
ATOM     57  O   UNK d   0     -21.141  -0.773  -3.977  0.00  0.00    -0.650 OA
BRANCH  56  58
ATOM     58  O   UNK d   0     -19.806   0.952  -3.307  0.00  0.00    -0.776 OA
ATOM     59  H   UNK d   0     -18.910   1.317  -3.679  0.00  0.00     0.167 HD
ENDBRANCH  56  58
ENDBRANCH  55  56
ENDBRANCH  21  55
BRANCH  18  60
ATOM     60  C   UNK d   0     -19.461  -5.740  -6.294  0.00  0.00     0.151 C 
BRANCH  60  61
ATOM     61  C   UNK d   0     -18.382  -6.231  -5.424  0.00  0.00     0.143 C 
ATOM     62  O   UNK d   0     -17.648  -5.559  -4.699  0.00  0.00    -0.650 OA
BRANCH  61  63
ATOM     63  O   UNK d   0     -18.188  -7.634  -5.439  0.00  0.00    -0.776 OA
ATOM     64  H   UNK d   0     -18.956  -8.265  -5.299  0.00  0.00     0.167 HD
ENDBRANCH  61  63
ENDBRANCH  60  61
ENDBRANCH  18  60
BRANCH  14  65
ATOM     65  C   UNK d   0     -18.761  -6.785  -9.055  0.00  0.00     0.052 C 
BRANCH  65  66
ATOM     66  C   UNK d   0     -17.706  -7.779  -8.719  0.00  0.00     0.115 C 
BRANCH  66  67
ATOM     67  C   UNK d   0     -16.373  -7.332  -8.431  0.00  0.00     0.139 C 
ATOM     68  O   UNK d   0     -15.518  -7.291  -9.391  0.00  0.00    -0.650 OA
BRANCH  67  69
ATOM     69  O   UNK d   0     -15.858  -6.921  -7.202  0.00  0.00    -0.776 OA
ATOM     70  H   UNK d   0     -14.968  -6.403  -7.240  0.00  0.00     0.167 HD
ENDBRANCH  67  69
ENDBRANCH  66  67
ENDBRANCH  65  66
ENDBRANCH  14  65
ENDBRANCH   6   7
ENDBRANCH   5   6
ENDBRANCH   2   5
TORSDOF 28
ENDMDL
MODEL 20
REMARK VINA RESULT:      -8.2      2.275      8.396
REMARK  28 active torsions:
REMARK  status: ('A' for Active; 'I' for Inactive)
REMARK    1  A    between atoms: C_2  and  O_3 
REMARK    2  A    between atoms: C_2  and  C_4 
REMARK    3  A    between atoms: C_4  and  C_5 
REMARK    4  A    between atoms: C_5  and  C_6 
REMARK    5  A    between atoms: C_7  and  C_8 
REMARK    6  A    between atoms: C_8  and  C_9 
REMARK    7  A    between atoms: C_9  and  O_11 
REMARK    8  A    between atoms: C_28  and  C_29 
REMARK    9  A    between atoms: C_29  and  C_30 
REMARK   10  A    between atoms: C_30  and  O_32 
REMARK   11  A    between atoms: C_33  and  C_34 
REMARK   12  A    between atoms: C_34  and  C_35 
REMARK   13  A    between atoms: C_35  and  C_36 
REMARK   14  A    between atoms: C_36  and  O_38 
REMARK   15  A    between atoms: C_39  and  C_40 
REMARK   16  A    between atoms: C_40  and  C_41 
REMARK   17  A    between atoms: C_41  and  C_42 
REMARK   18  A    between atoms: C_42  and  O_44 
REMARK   19  A    between atoms: C_45  and  C_46 
REMARK   20  A    between atoms: C_46  and  C_47 
REMARK   21  A    between atoms: C_47  and  O_49 
REMARK   22  A    between atoms: C_50  and  C_51 
REMARK   23  A    between atoms: C_51  and  C_52 
REMARK   24  A    between atoms: C_52  and  O_54 
REMARK   25  A    between atoms: C_55  and  C_56 
REMARK   26  A    between atoms: C_56  and  C_57 
REMARK   27  A    between atoms: C_57  and  C_58 
REMARK   28  A    between atoms: C_58  and  O_60 
ROOT
ATOM      1  O   UNK d   0       6.249  -7.060  10.108  0.00  0.00    -0.650 OA
ATOM      2  C   UNK d   0       6.994  -7.815  10.772  0.00  0.00     0.139 C 
ENDROOT
BRANCH   2   3
ATOM      3  O   UNK d   0       6.954  -9.170  10.544  0.00  0.00    -0.776 OA
ATOM      4  H   UNK d   0       6.462  -9.798  11.183  0.00  0.00     0.167 HD
ENDBRANCH   2   3
BRANCH   2   5
ATOM      5  C   UNK d   0       7.912  -7.248  11.799  0.00  0.00     0.115 C 
BRANCH   5   6
ATOM      6  C   UNK d   0       9.308  -7.769  11.589  0.00  0.00     0.052 C 
BRANCH   6   7
ATOM      7  C   UNK d   0      10.090  -6.951  10.589  0.00  0.00    -0.020 A 
ATOM      8  C   UNK d   0      10.332  -7.242   9.336  0.00  0.00    -0.011 A 
ATOM      9  C   UNK d   0      11.129  -6.163   8.775  0.00  0.00     0.067 A 
ATOM     10  C   UNK d   0      11.684  -5.861   7.522  0.00  0.00     0.062 C 
ATOM     11  N   UNK d   0      11.329  -5.261   9.758  0.00  0.00    -0.248 NA
ATOM     12  C   UNK d   0      12.191  -4.629   7.096  0.00  0.00     0.041 A 
ATOM     13  N   UNK d   0      12.970  -3.726   7.721  0.00  0.00    -0.355 N 
ATOM     14  C   UNK d   0      11.829  -4.147   5.824  0.00  0.00    -0.022 A 
ATOM     15  C   UNK d   0      13.106  -2.681   6.882  0.00  0.00     0.042 A 
ATOM     16  H   UNK d   0      13.432  -3.834   8.727  0.00  0.00     0.166 HD
ATOM     17  C   UNK d   0      13.815  -1.473   7.035  0.00  0.00     0.062 C 
ATOM     18  C   UNK d   0      12.403  -2.909   5.683  0.00  0.00    -0.013 A 
ATOM     19  C   UNK d   0      13.865  -0.634   8.118  0.00  0.00     0.067 A 
ATOM     20  N   UNK d   0      13.343  -1.088   9.260  0.00  0.00    -0.248 NA
ATOM     21  C   UNK d   0      14.351   0.712   8.376  0.00  0.00    -0.011 A 
ATOM     22  C   UNK d   0      13.451  -0.137  10.245  0.00  0.00     0.066 A 
ATOM     23  C   UNK d   0      12.980  -0.493  11.500  0.00  0.00     0.062 C 
ATOM     24  C   UNK d   0      14.102   0.998   9.621  0.00  0.00    -0.020 A 
ATOM     25  C   UNK d   0      12.486  -1.741  11.912  0.00  0.00     0.041 A 
ATOM     26  N   UNK d   0      11.699  -2.631  11.296  0.00  0.00    -0.355 N 
ATOM     27  C   UNK d   0      12.854  -2.225  13.186  0.00  0.00    -0.022 A 
ATOM     28  C   UNK d   0      11.556  -3.670  12.134  0.00  0.00     0.042 A 
ATOM     29  H   UNK d   0      11.228  -2.517  10.289  0.00  0.00     0.166 HD
ATOM     30  C   UNK d   0      10.846  -4.874  11.999  0.00  0.00     0.062 C 
ATOM     31  C   UNK d   0      12.270  -3.446  13.335  0.00  0.00    -0.013 A 
ATOM     32  C   UNK d   0      10.729  -5.676  10.875  0.00  0.00     0.066 A 
BRANCH   8  33
ATOM     33  C   UNK d   0       9.892  -8.445   8.606  0.00  0.00     0.151 C 
BRANCH  33  34
ATOM     34  C   UNK d   0       8.954  -8.136   7.511  0.00  0.00     0.143 C 
ATOM     35  O   UNK d   0       9.369  -7.840   6.382  0.00  0.00    -0.650 OA
BRANCH  34  36
ATOM     36  O   UNK d   0       7.600  -8.176   7.751  0.00  0.00    -0.776 OA
ATOM     37  H   UNK d   0       6.919  -8.051   6.989  0.00  0.00     0.167 HD
ENDBRANCH  34  36
ENDBRANCH  33  34
ENDBRANCH   8  33
BRANCH  31  38
ATOM     38  C   UNK d   0      12.393  -4.352  14.537  0.00  0.00     0.151 C 
BRANCH  38  39
ATOM     39  C   UNK d   0      11.392  -4.082  15.548  0.00  0.00     0.143 C 
ATOM     40  O   UNK d   0      11.586  -3.280  16.479  0.00  0.00    -0.650 OA
BRANCH  39  41
ATOM     41  O   UNK d   0      10.162  -4.735  15.488  0.00  0.00    -0.776 OA
ATOM     42  H   UNK d   0       9.974  -5.288  14.645  0.00  0.00     0.167 HD
ENDBRANCH  39  41
ENDBRANCH  38  39
ENDBRANCH  31  38
BRANCH  27  43
ATOM     43  C   UNK d   0      13.718  -1.583  14.243  0.00  0.00     0.052 C 
BRANCH  43  44
ATOM     44  C   UNK d   0      14.958  -0.957  13.692  0.00  0.00     0.115 C 
BRANCH  44  45
ATOM     45  C   UNK d   0      15.981  -2.033  13.620  0.00  0.00     0.139 C 
ATOM     46  O   UNK d   0      17.045  -1.797  12.996  0.00  0.00    -0.650 OA
BRANCH  45  47
ATOM     47  O   UNK d   0      15.811  -3.266  14.212  0.00  0.00    -0.776 OA
ATOM     48  H   UNK d   0      15.158  -3.978  13.846  0.00  0.00     0.167 HD
ENDBRANCH  45  47
ENDBRANCH  44  45
ENDBRANCH  43  44
ENDBRANCH  27  43
BRANCH  24  49
ATOM     49  C   UNK d   0      14.463   2.247  10.314  0.00  0.00     0.052 C 
BRANCH  49  50
ATOM     50  C   UNK d   0      13.517   3.354   9.925  0.00  0.00     0.115 C 
BRANCH  50  51
ATOM     51  C   UNK d   0      12.670   3.904  10.974  0.00  0.00     0.139 C 
ATOM     52  O   UNK d   0      12.230   5.078  10.943  0.00  0.00    -0.650 OA
BRANCH  51  53
ATOM     53  O   UNK d   0      12.325   3.116  12.061  0.00  0.00    -0.776 OA
ATOM     54  H   UNK d   0      12.482   3.483  12.983  0.00  0.00     0.167 HD
ENDBRANCH  51  53
ENDBRANCH  50  51
ENDBRANCH  49  50
ENDBRANCH  24  49
BRANCH  21  55
ATOM     55  C   UNK d   0      15.018   1.569   7.351  0.00  0.00     0.151 C 
BRANCH  55  56
ATOM     56  C   UNK d   0      16.203   0.917   6.773  0.00  0.00     0.143 C 
ATOM     57  O   UNK d   0      17.149   0.498   7.468  0.00  0.00    -0.650 OA
BRANCH  56  58
ATOM     58  O   UNK d   0      16.252   0.770   5.388  0.00  0.00    -0.776 OA
ATOM     59  H   UNK d   0      15.953   1.603   4.850  0.00  0.00     0.167 HD
ENDBRANCH  56  58
ENDBRANCH  55  56
ENDBRANCH  21  55
BRANCH  18  60
ATOM     60  C   UNK d   0      12.266  -2.026   4.467  0.00  0.00     0.151 C 
BRANCH  60  61
ATOM     61  C   UNK d   0      13.608  -1.951   3.869  0.00  0.00     0.143 C 
ATOM     62  O   UNK d   0      14.337  -2.895   3.561  0.00  0.00    -0.650 OA
BRANCH  61  63
ATOM     63  O   UNK d   0      14.090  -0.642   3.632  0.00  0.00    -0.776 OA
ATOM     64  H   UNK d   0      14.259  -0.313   2.698  0.00  0.00     0.167 HD
ENDBRANCH  61  63
ENDBRANCH  60  61
ENDBRANCH  18  60
BRANCH  14  65
ATOM     65  C   UNK d   0      11.070  -4.804   4.706  0.00  0.00     0.052 C 
BRANCH  65  66
ATOM     66  C   UNK d   0      11.950  -5.550   3.766  0.00  0.00     0.115 C 
BRANCH  66  67
ATOM     67  C   UNK d   0      11.713  -6.945   3.525  0.00  0.00     0.139 C 
ATOM     68  O   UNK d   0      12.536  -7.801   4.018  0.00  0.00    -0.650 OA
BRANCH  67  69
ATOM     69  O   UNK d   0      10.671  -7.521   2.799  0.00  0.00    -0.776 OA
ATOM     70  H   UNK d   0      10.419  -8.484   3.065  0.00  0.00     0.167 HD
ENDBRANCH  67  69
ENDBRANCH  66  67
ENDBRANCH  65  66
ENDBRANCH  14  65
ENDBRANCH   6   7
ENDBRANCH   5   6
ENDBRANCH   2   5
TORSDOF 28
ENDMDL
