MODEL 1
REMARK VINA RESULT:     -10.8      0.000      0.000
REMARK  16 active torsions:
REMARK  status: ('A' for Active; 'I' for Inactive)
REMARK    1  A    between atoms: C_6  and  C_7 
REMARK    2  A    between atoms: C_7  and  C_8 
REMARK    3  A    between atoms: C_8  and  C_9 
REMARK    4  A    between atoms: C_9  and  O_11 
REMARK    5  A    between atoms: C_16  and  C_17 
REMARK    6  A    between atoms: C_17  and  C_18 
REMARK    7  A    between atoms: C_18  and  C_19 
REMARK    8  A    between atoms: C_19  and  O_21 
REMARK    9  A    between atoms: C_28  and  C_29 
REMARK   10  A    between atoms: C_29  and  C_30 
REMARK   11  A    between atoms: C_30  and  C_31 
REMARK   12  A    between atoms: C_31  and  O_33 
REMARK   13  A    between atoms: C_42  and  C_43 
REMARK   14  A    between atoms: C_43  and  C_44 
REMARK   15  A    between atoms: C_44  and  C_45 
REMARK   16  A    between atoms: C_45  and  O_47 
ROOT
HETATM    1  C   UNK     0       1.881   5.031  -6.504  0.00  0.00     0.051 C 
HETATM    2  C   UNK     0       1.044   4.735  -7.732  0.00  0.00    -0.031 A 
HETATM    3  C   UNK     0       1.176   3.715  -8.662  0.00  0.00     0.021 A 
HETATM    4  N   UNK     0       0.222   3.859  -9.613  0.00  0.00    -0.361 N 
HETATM    5  C   UNK     0      -0.519   4.943  -9.305  0.00  0.00     0.022 A 
HETATM    6  C   UNK     0      -0.031   5.517  -8.136  0.00  0.00    -0.027 A 
HETATM    7  C   UNK     0      -1.745   5.479  -9.976  0.00  0.00     0.115 C 
HETATM    8  C   UNK     0      -2.786   4.462 -10.409  0.00  0.00     0.021 A 
HETATM    9  N   UNK     0      -3.145   3.321  -9.799  0.00  0.00    -0.361 N 
HETATM   10  C   UNK     0      -4.039   2.688 -10.587  0.00  0.00     0.022 A 
HETATM   11  C   UNK     0      -4.269   3.445 -11.732  0.00  0.00    -0.027 A 
HETATM   12  C   UNK     0      -3.483   4.564 -11.626  0.00  0.00    -0.031 A 
HETATM   13  C   UNK     0      -3.410   5.681 -12.643  0.00  0.00     0.051 C 
HETATM   14  C   UNK     0      -4.669   1.324 -10.320  0.00  0.00     0.115 C 
HETATM   15  C   UNK     0      -3.663   0.188 -10.230  0.00  0.00     0.021 A 
HETATM   16  N   UNK     0      -2.627   0.073  -9.378  0.00  0.00    -0.361 N 
HETATM   17  C   UNK     0      -1.941  -1.035  -9.667  0.00  0.00     0.022 A 
HETATM   18  C   UNK     0      -2.566  -1.678 -10.754  0.00  0.00    -0.027 A 
HETATM   19  C   UNK     0      -3.643  -0.903 -11.096  0.00  0.00    -0.031 A 
HETATM   20  C   UNK     0      -4.618  -1.256 -12.205  0.00  0.00     0.051 C 
HETATM   21  C   UNK     0      -0.666  -1.575  -9.060  0.00  0.00     0.115 C 
HETATM   22  C   UNK     0       0.359  -0.573  -8.584  0.00  0.00     0.022 A 
HETATM   23  N   UNK     0       0.733   0.573  -9.169  0.00  0.00    -0.361 N 
HETATM   24  C   UNK     0       1.565   1.224  -8.330  0.00  0.00     0.021 A 
HETATM   25  C   UNK     0       1.738   0.475  -7.182  0.00  0.00    -0.031 A 
HETATM   26  C   UNK     0       2.605   0.767  -5.975  0.00  0.00     0.051 C 
HETATM   27  C   UNK     0       0.976  -0.680  -7.321  0.00  0.00    -0.027 A 
HETATM   28  C   UNK     0       2.175   2.603  -8.512  0.00  0.00     0.115 C 
HETATM   29  H   UNK     0       0.105   3.217 -10.516  0.00  0.00     0.165 HD
HETATM   30  H   UNK     0      -2.807   2.985  -8.789  0.00  0.00     0.165 HD
HETATM   31  H   UNK     0      -2.402   0.764  -8.523  0.00  0.00     0.165 HD
HETATM   32  H   UNK     0       0.448   0.912 -10.198  0.00  0.00     0.165 HD
ENDROOT
BRANCH   6  33
HETATM   33  C   UNK     0      -0.500   6.736  -7.384  0.00  0.00     0.051 C 
BRANCH  33  34
HETATM   34  C   UNK     0      -1.574   6.370  -6.387  0.00  0.00     0.114 C 
BRANCH  34  35
HETATM   35  C   UNK     0      -2.566   7.483  -6.371  0.00  0.00     0.139 C 
HETATM   36  O   UNK     0      -3.325   7.674  -7.365  0.00  0.00    -0.650 OA
BRANCH  35  37
HETATM   37  O   UNK     0      -2.708   8.345  -5.290  0.00  0.00    -0.776 OA
HETATM   38  H   UNK     0      -1.968   8.492  -4.623  0.00  0.00     0.167 HD
ENDBRANCH  35  37
ENDBRANCH  34  35
ENDBRANCH  33  34
ENDBRANCH   6  33
BRANCH  27  39
HETATM   39  C   UNK     0       0.965  -1.770  -6.309  0.00  0.00     0.051 C 
BRANCH  39  40
HETATM   40  C   UNK     0      -0.322  -2.352  -5.930  0.00  0.00     0.114 C 
BRANCH  40  41
HETATM   41  C   UNK     0      -0.595  -3.766  -6.055  0.00  0.00     0.139 C 
HETATM   42  O   UNK     0      -1.274  -4.406  -5.241  0.00  0.00    -0.650 OA
BRANCH  41  43
HETATM   43  O   UNK     0      -0.063  -4.477  -7.168  0.00  0.00    -0.776 OA
HETATM   44  H   UNK     0      -0.607  -4.392  -8.019  0.00  0.00     0.167 HD
ENDBRANCH  41  43
ENDBRANCH  40  41
ENDBRANCH  39  40
ENDBRANCH  27  39
BRANCH  11  45
HETATM   45  C   UNK     0      -5.187   3.150 -12.888  0.00  0.00     0.051 C 
BRANCH  45  46
HETATM   46  C   UNK     0      -4.573   2.316 -13.952  0.00  0.00     0.114 C 
BRANCH  46  47
HETATM   47  C   UNK     0      -5.531   2.281 -15.094  0.00  0.00     0.139 C 
HETATM   48  O   UNK     0      -5.150   1.804 -16.172  0.00  0.00    -0.650 OA
BRANCH  47  49
HETATM   49  O   UNK     0      -6.807   2.767 -14.956  0.00  0.00    -0.776 OA
HETATM   50  H   UNK     0      -7.605   2.153 -14.752  0.00  0.00     0.167 HD
ENDBRANCH  47  49
ENDBRANCH  46  47
ENDBRANCH  45  46
ENDBRANCH  11  45
BRANCH  18  51
HETATM   51  C   UNK     0      -2.169  -2.972 -11.416  0.00  0.00     0.051 C 
BRANCH  51  52
HETATM   52  C   UNK     0      -3.300  -3.954 -11.145  0.00  0.00     0.114 C 
BRANCH  52  53
HETATM   53  C   UNK     0      -2.974  -4.876 -10.039  0.00  0.00     0.139 C 
HETATM   54  O   UNK     0      -1.954  -4.691  -9.356  0.00  0.00    -0.650 OA
BRANCH  53  55
HETATM   55  O   UNK     0      -3.803  -5.938  -9.774  0.00  0.00    -0.776 OA
HETATM   56  H   UNK     0      -4.795  -5.931  -9.822  0.00  0.00     0.167 HD
ENDBRANCH  53  55
ENDBRANCH  52  53
ENDBRANCH  51  52
ENDBRANCH  18  51
TORSDOF 16
ENDMDL
MODEL 2
REMARK VINA RESULT:     -10.5      2.885      8.093
REMARK  16 active torsions:
REMARK  status: ('A' for Active; 'I' for Inactive)
REMARK    1  A    between atoms: C_6  and  C_7 
REMARK    2  A    between atoms: C_7  and  C_8 
REMARK    3  A    between atoms: C_8  and  C_9 
REMARK    4  A    between atoms: C_9  and  O_11 
REMARK    5  A    between atoms: C_16  and  C_17 
REMARK    6  A    between atoms: C_17  and  C_18 
REMARK    7  A    between atoms: C_18  and  C_19 
REMARK    8  A    between atoms: C_19  and  O_21 
REMARK    9  A    between atoms: C_28  and  C_29 
REMARK   10  A    between atoms: C_29  and  C_30 
REMARK   11  A    between atoms: C_30  and  C_31 
REMARK   12  A    between atoms: C_31  and  O_33 
REMARK   13  A    between atoms: C_42  and  C_43 
REMARK   14  A    between atoms: C_43  and  C_44 
REMARK   15  A    between atoms: C_44  and  C_45 
REMARK   16  A    between atoms: C_45  and  O_47 
ROOT
HETATM    1  C   UNK     0       1.658   5.089  -7.220  0.00  0.00     0.051 C 
HETATM    2  C   UNK     0       0.750   4.018  -7.790  0.00  0.00    -0.031 A 
HETATM    3  C   UNK     0      -0.626   4.027  -7.955  0.00  0.00     0.021 A 
HETATM    4  N   UNK     0      -1.016   2.840  -8.476  0.00  0.00    -0.361 N 
HETATM    5  C   UNK     0       0.083   2.077  -8.654  0.00  0.00     0.022 A 
HETATM    6  C   UNK     0       1.205   2.783  -8.233  0.00  0.00    -0.027 A 
HETATM    7  C   UNK     0       0.210   0.724  -9.281  0.00  0.00     0.115 C 
HETATM    8  C   UNK     0      -0.586   0.484 -10.552  0.00  0.00     0.021 A 
HETATM    9  N   UNK     0      -0.860   1.346 -11.542  0.00  0.00    -0.361 N 
HETATM   10  C   UNK     0      -1.675   0.728 -12.423  0.00  0.00     0.022 A 
HETATM   11  C   UNK     0      -1.925  -0.572 -11.993  0.00  0.00    -0.027 A 
HETATM   12  C   UNK     0      -1.242  -0.732 -10.814  0.00  0.00    -0.031 A 
HETATM   13  C   UNK     0      -1.217  -1.996  -9.983  0.00  0.00     0.051 C 
HETATM   14  C   UNK     0      -2.291   1.351 -13.672  0.00  0.00     0.115 C 
HETATM   15  C   UNK     0      -3.195   2.540 -13.386  0.00  0.00     0.021 A 
HETATM   16  N   UNK     0      -2.871   3.686 -12.759  0.00  0.00    -0.361 N 
HETATM   17  C   UNK     0      -3.961   4.447 -12.643  0.00  0.00     0.022 A 
HETATM   18  C   UNK     0      -5.047   3.768 -13.232  0.00  0.00    -0.027 A 
HETATM   19  C   UNK     0      -4.553   2.575 -13.694  0.00  0.00    -0.031 A 
HETATM   20  C   UNK     0      -5.388   1.547 -14.435  0.00  0.00     0.051 C 
HETATM   21  C   UNK     0      -4.146   5.783 -11.962  0.00  0.00     0.115 C 
HETATM   22  C   UNK     0      -3.327   6.053 -10.722  0.00  0.00     0.022 A 
HETATM   23  N   UNK     0      -3.035   5.212  -9.721  0.00  0.00    -0.361 N 
HETATM   24  C   UNK     0      -2.160   5.823  -8.897  0.00  0.00     0.021 A 
HETATM   25  C   UNK     0      -1.891   7.092  -9.372  0.00  0.00    -0.031 A 
HETATM   26  C   UNK     0      -1.007   8.167  -8.774  0.00  0.00     0.051 C 
HETATM   27  C   UNK     0      -2.626   7.263 -10.539  0.00  0.00    -0.027 A 
HETATM   28  C   UNK     0      -1.469   5.239  -7.676  0.00  0.00     0.115 C 
HETATM   29  H   UNK     0      -2.069   2.534  -8.676  0.00  0.00     0.165 HD
HETATM   30  H   UNK     0      -0.440   2.376 -11.649  0.00  0.00     0.165 HD
HETATM   31  H   UNK     0      -1.841   3.986 -12.433  0.00  0.00     0.165 HD
HETATM   32  H   UNK     0      -3.477   4.194  -9.564  0.00  0.00     0.165 HD
ENDROOT
BRANCH   6  33
HETATM   33  C   UNK     0       2.657   2.376  -8.217  0.00  0.00     0.051 C 
BRANCH  33  34
HETATM   34  C   UNK     0       3.000   1.667  -6.929  0.00  0.00     0.114 C 
BRANCH  34  35
HETATM   35  C   UNK     0       4.482   1.513  -6.885  0.00  0.00     0.139 C 
HETATM   36  O   UNK     0       5.059   1.201  -5.802  0.00  0.00    -0.650 OA
BRANCH  35  37
HETATM   37  O   UNK     0       5.288   1.695  -8.002  0.00  0.00    -0.776 OA
HETATM   38  H   UNK     0       6.083   1.106  -8.191  0.00  0.00     0.167 HD
ENDBRANCH  35  37
ENDBRANCH  34  35
ENDBRANCH  33  34
ENDBRANCH   6  33
BRANCH  27  39
HETATM   39  C   UNK     0      -2.649   8.539 -11.304  0.00  0.00     0.051 C 
BRANCH  39  40
HETATM   40  C   UNK     0      -3.710   9.503 -11.014  0.00  0.00     0.114 C 
BRANCH  40  41
HETATM   41  C   UNK     0      -4.878   9.639 -11.855  0.00  0.00     0.139 C 
HETATM   42  O   UNK     0      -4.955   9.172 -12.999  0.00  0.00    -0.650 OA
BRANCH  41  43
HETATM   43  O   UNK     0      -6.010  10.346 -11.357  0.00  0.00    -0.776 OA
HETATM   44  H   UNK     0      -6.285  11.144 -11.917  0.00  0.00     0.167 HD
ENDBRANCH  41  43
ENDBRANCH  40  41
ENDBRANCH  39  40
ENDBRANCH  27  39
BRANCH  11  45
HETATM   45  C   UNK     0      -2.766  -1.636 -12.647  0.00  0.00     0.051 C 
BRANCH  45  46
HETATM   46  C   UNK     0      -4.222  -1.505 -12.384  0.00  0.00     0.114 C 
BRANCH  46  47
HETATM   47  C   UNK     0      -4.601  -2.598 -11.445  0.00  0.00     0.139 C 
HETATM   48  O   UNK     0      -3.968  -3.663 -11.488  0.00  0.00    -0.650 OA
BRANCH  47  49
HETATM   49  O   UNK     0      -5.629  -2.432 -10.552  0.00  0.00    -0.776 OA
HETATM   50  H   UNK     0      -5.476  -2.437  -9.536  0.00  0.00     0.167 HD
ENDBRANCH  47  49
ENDBRANCH  46  47
ENDBRANCH  45  46
ENDBRANCH  11  45
BRANCH  18  51
HETATM   51  C   UNK     0      -6.472   4.239 -13.366  0.00  0.00     0.051 C 
BRANCH  51  52
HETATM   52  C   UNK     0      -7.025   3.574 -14.618  0.00  0.00     0.114 C 
BRANCH  52  53
HETATM   53  C   UNK     0      -8.212   4.281 -15.136  0.00  0.00     0.139 C 
HETATM   54  O   UNK     0      -9.018   4.802 -14.349  0.00  0.00    -0.650 OA
BRANCH  53  55
HETATM   55  O   UNK     0      -8.419   4.356 -16.492  0.00  0.00    -0.776 OA
HETATM   56  H   UNK     0      -7.736   4.583 -17.176  0.00  0.00     0.167 HD
ENDBRANCH  53  55
ENDBRANCH  52  53
ENDBRANCH  51  52
ENDBRANCH  18  51
TORSDOF 16
ENDMDL
MODEL 3
REMARK VINA RESULT:     -10.5      2.261      8.120
REMARK  16 active torsions:
REMARK  status: ('A' for Active; 'I' for Inactive)
REMARK    1  A    between atoms: C_6  and  C_7 
REMARK    2  A    between atoms: C_7  and  C_8 
REMARK    3  A    between atoms: C_8  and  C_9 
REMARK    4  A    between atoms: C_9  and  O_11 
REMARK    5  A    between atoms: C_16  and  C_17 
REMARK    6  A    between atoms: C_17  and  C_18 
REMARK    7  A    between atoms: C_18  and  C_19 
REMARK    8  A    between atoms: C_19  and  O_21 
REMARK    9  A    between atoms: C_28  and  C_29 
REMARK   10  A    between atoms: C_29  and  C_30 
REMARK   11  A    between atoms: C_30  and  C_31 
REMARK   12  A    between atoms: C_31  and  O_33 
REMARK   13  A    between atoms: C_42  and  C_43 
REMARK   14  A    between atoms: C_43  and  C_44 
REMARK   15  A    between atoms: C_44  and  C_45 
REMARK   16  A    between atoms: C_45  and  O_47 
ROOT
HETATM    1  C   UNK     0      -3.466   5.175 -12.912  0.00  0.00     0.051 C 
HETATM    2  C   UNK     0      -2.878   3.814 -12.601  0.00  0.00    -0.031 A 
HETATM    3  C   UNK     0      -1.594   3.483 -12.197  0.00  0.00     0.021 A 
HETATM    4  N   UNK     0      -1.506   2.138 -12.065  0.00  0.00    -0.361 N 
HETATM    5  C   UNK     0      -2.708   1.606 -12.368  0.00  0.00     0.022 A 
HETATM    6  C   UNK     0      -3.589   2.626 -12.710  0.00  0.00    -0.027 A 
HETATM    7  C   UNK     0      -3.167   0.183 -12.290  0.00  0.00     0.115 C 
HETATM    8  C   UNK     0      -2.740  -0.604 -11.063  0.00  0.00     0.021 A 
HETATM    9  N   UNK     0      -2.599  -0.173  -9.800  0.00  0.00    -0.361 N 
HETATM   10  C   UNK     0      -2.112  -1.192  -9.061  0.00  0.00     0.022 A 
HETATM   11  C   UNK     0      -1.945  -2.314  -9.868  0.00  0.00    -0.027 A 
HETATM   12  C   UNK     0      -2.339  -1.950 -11.130  0.00  0.00    -0.031 A 
HETATM   13  C   UNK     0      -2.334  -2.856 -12.342  0.00  0.00     0.051 C 
HETATM   14  C   UNK     0      -1.737  -1.135  -7.583  0.00  0.00     0.115 C 
HETATM   15  C   UNK     0      -0.638  -0.134  -7.265  0.00  0.00     0.021 A 
HETATM   16  N   UNK     0      -0.643   1.192  -7.497  0.00  0.00    -0.361 N 
HETATM   17  C   UNK     0       0.537   1.704  -7.139  0.00  0.00     0.022 A 
HETATM   18  C   UNK     0       1.345   0.664  -6.640  0.00  0.00    -0.027 A 
HETATM   19  C   UNK     0       0.597  -0.482  -6.723  0.00  0.00    -0.031 A 
HETATM   20  C   UNK     0       1.081  -1.842  -6.253  0.00  0.00     0.051 C 
HETATM   21  C   UNK     0       1.061   3.117  -7.262  0.00  0.00     0.115 C 
HETATM   22  C   UNK     0       0.610   3.927  -8.455  0.00  0.00     0.022 A 
HETATM   23  N   UNK     0       0.456   3.523  -9.722  0.00  0.00    -0.361 N 
HETATM   24  C   UNK     0      -0.103   4.530 -10.423  0.00  0.00     0.021 A 
HETATM   25  C   UNK     0      -0.304   5.613  -9.589  0.00  0.00    -0.031 A 
HETATM   26  C   UNK     0      -0.862   6.981  -9.921  0.00  0.00     0.051 C 
HETATM   27  C   UNK     0       0.145   5.251  -8.324  0.00  0.00    -0.027 A 
HETATM   28  C   UNK     0      -0.551   4.515 -11.874  0.00  0.00     0.115 C 
HETATM   29  H   UNK     0      -0.585   1.571 -11.798  0.00  0.00     0.165 HD
HETATM   30  H   UNK     0      -2.888   0.836  -9.417  0.00  0.00     0.165 HD
HETATM   31  H   UNK     0      -1.513   1.788  -7.878  0.00  0.00     0.165 HD
HETATM   32  H   UNK     0       0.780   2.536 -10.144  0.00  0.00     0.165 HD
ENDROOT
BRANCH   6  33
HETATM   33  C   UNK     0      -5.036   2.559 -13.130  0.00  0.00     0.051 C 
BRANCH  33  34
HETATM   34  C   UNK     0      -5.153   2.161 -14.582  0.00  0.00     0.114 C 
BRANCH  34  35
HETATM   35  C   UNK     0      -6.411   2.763 -15.110  0.00  0.00     0.139 C 
HETATM   36  O   UNK     0      -7.083   3.563 -14.396  0.00  0.00    -0.650 OA
BRANCH  35  37
HETATM   37  O   UNK     0      -6.898   2.486 -16.382  0.00  0.00    -0.776 OA
HETATM   38  H   UNK     0      -7.881   2.361 -16.562  0.00  0.00     0.167 HD
ENDBRANCH  35  37
ENDBRANCH  34  35
ENDBRANCH  33  34
ENDBRANCH   6  33
BRANCH  27  39
HETATM   39  C   UNK     0       0.156   6.190  -7.169  0.00  0.00     0.051 C 
BRANCH  39  40
HETATM   40  C   UNK     0      -1.109   6.471  -6.491  0.00  0.00     0.114 C 
BRANCH  40  41
HETATM   41  C   UNK     0      -1.603   7.817  -6.307  0.00  0.00     0.139 C 
HETATM   42  O   UNK     0      -1.192   8.790  -6.954  0.00  0.00    -0.650 OA
BRANCH  41  43
HETATM   43  O   UNK     0      -2.615   8.055  -5.334  0.00  0.00    -0.776 OA
HETATM   44  H   UNK     0      -3.561   7.975  -5.686  0.00  0.00     0.167 HD
ENDBRANCH  41  43
ENDBRANCH  40  41
ENDBRANCH  39  40
ENDBRANCH  27  39
BRANCH  11  45
HETATM   45  C   UNK     0      -1.440  -3.680  -9.488  0.00  0.00     0.051 C 
BRANCH  45  46
HETATM   46  C   UNK     0      -2.492  -4.728  -9.461  0.00  0.00     0.114 C 
BRANCH  46  47
HETATM   47  C   UNK     0      -1.985  -5.841  -8.607  0.00  0.00     0.139 C 
HETATM   48  O   UNK     0      -1.070  -5.603  -7.806  0.00  0.00    -0.650 OA
BRANCH  47  49
HETATM   49  O   UNK     0      -2.517  -7.101  -8.706  0.00  0.00    -0.776 OA
HETATM   50  H   UNK     0      -2.120  -7.902  -8.199  0.00  0.00     0.167 HD
ENDBRANCH  47  49
ENDBRANCH  46  47
ENDBRANCH  45  46
ENDBRANCH  11  45
BRANCH  18  51
HETATM   51  C   UNK     0       2.746   0.760  -6.094  0.00  0.00     0.051 C 
BRANCH  51  52
HETATM   52  C   UNK     0       3.673   0.785  -7.300  0.00  0.00     0.114 C 
BRANCH  52  53
HETATM   53  C   UNK     0       4.838   1.663  -7.079  0.00  0.00     0.139 C 
HETATM   54  O   UNK     0       4.709   2.719  -6.440  0.00  0.00    -0.650 OA
BRANCH  53  55
HETATM   55  O   UNK     0       6.064   1.306  -7.587  0.00  0.00    -0.776 OA
HETATM   56  H   UNK     0       6.372   1.445  -8.521  0.00  0.00     0.167 HD
ENDBRANCH  53  55
ENDBRANCH  52  53
ENDBRANCH  51  52
ENDBRANCH  18  51
TORSDOF 16
ENDMDL
MODEL 4
REMARK VINA RESULT:     -10.3      2.039      6.969
REMARK  16 active torsions:
REMARK  status: ('A' for Active; 'I' for Inactive)
REMARK    1  A    between atoms: C_6  and  C_7 
REMARK    2  A    between atoms: C_7  and  C_8 
REMARK    3  A    between atoms: C_8  and  C_9 
REMARK    4  A    between atoms: C_9  and  O_11 
REMARK    5  A    between atoms: C_16  and  C_17 
REMARK    6  A    between atoms: C_17  and  C_18 
REMARK    7  A    between atoms: C_18  and  C_19 
REMARK    8  A    between atoms: C_19  and  O_21 
REMARK    9  A    between atoms: C_28  and  C_29 
REMARK   10  A    between atoms: C_29  and  C_30 
REMARK   11  A    between atoms: C_30  and  C_31 
REMARK   12  A    between atoms: C_31  and  O_33 
REMARK   13  A    between atoms: C_42  and  C_43 
REMARK   14  A    between atoms: C_43  and  C_44 
REMARK   15  A    between atoms: C_44  and  C_45 
REMARK   16  A    between atoms: C_45  and  O_47 
ROOT
HETATM    1  C   UNK     0      -4.987   3.647 -12.962  0.00  0.00     0.051 C 
HETATM    2  C   UNK     0      -4.161   3.826 -11.705  0.00  0.00    -0.031 A 
HETATM    3  C   UNK     0      -4.055   3.001 -10.596  0.00  0.00     0.021 A 
HETATM    4  N   UNK     0      -3.224   3.576  -9.696  0.00  0.00    -0.361 N 
HETATM    5  C   UNK     0      -2.790   4.746 -10.209  0.00  0.00     0.022 A 
HETATM    6  C   UNK     0      -3.360   4.935 -11.464  0.00  0.00    -0.027 A 
HETATM    7  C   UNK     0      -1.790   5.714  -9.660  0.00  0.00     0.115 C 
HETATM    8  C   UNK     0      -0.534   5.121  -9.045  0.00  0.00     0.021 A 
HETATM    9  N   UNK     0       0.150   4.032  -9.427  0.00  0.00    -0.361 N 
HETATM   10  C   UNK     0       1.144   3.827  -8.537  0.00  0.00     0.022 A 
HETATM   11  C   UNK     0       1.104   4.818  -7.560  0.00  0.00    -0.027 A 
HETATM   12  C   UNK     0       0.050   5.637  -7.874  0.00  0.00    -0.031 A 
HETATM   13  C   UNK     0      -0.372   6.858  -7.090  0.00  0.00     0.051 C 
HETATM   14  C   UNK     0       2.132   2.665  -8.541  0.00  0.00     0.115 C 
HETATM   15  C   UNK     0       1.478   1.299  -8.406  0.00  0.00     0.021 A 
HETATM   16  N   UNK     0       0.554   0.748  -9.215  0.00  0.00    -0.361 N 
HETATM   17  C   UNK     0       0.182  -0.433  -8.716  0.00  0.00     0.022 A 
HETATM   18  C   UNK     0       0.905  -0.666  -7.529  0.00  0.00    -0.027 A 
HETATM   19  C   UNK     0       1.714   0.426  -7.347  0.00  0.00    -0.031 A 
HETATM   20  C   UNK     0       2.693   0.568  -6.196  0.00  0.00     0.051 C 
HETATM   21  C   UNK     0      -0.867  -1.407  -9.201  0.00  0.00     0.115 C 
HETATM   22  C   UNK     0      -2.102  -0.832  -9.855  0.00  0.00     0.022 A 
HETATM   23  N   UNK     0      -2.801   0.253  -9.499  0.00  0.00    -0.361 N 
HETATM   24  C   UNK     0      -3.737   0.483 -10.442  0.00  0.00     0.021 A 
HETATM   25  C   UNK     0      -3.645  -0.485 -11.424  0.00  0.00    -0.031 A 
HETATM   26  C   UNK     0      -4.500  -0.673 -12.660  0.00  0.00     0.051 C 
HETATM   27  C   UNK     0      -2.606  -1.338 -11.070  0.00  0.00    -0.027 A 
HETATM   28  C   UNK     0      -4.707   1.649 -10.525  0.00  0.00     0.115 C 
HETATM   29  H   UNK     0      -2.980   3.170  -8.687  0.00  0.00     0.165 HD
HETATM   30  H   UNK     0      -0.035   3.433 -10.353  0.00  0.00     0.165 HD
HETATM   31  H   UNK     0       0.192   1.178 -10.185  0.00  0.00     0.165 HD
HETATM   32  H   UNK     0      -2.669   0.843  -8.555  0.00  0.00     0.165 HD
ENDROOT
BRANCH   6  33
HETATM   33  C   UNK     0      -3.204   6.075 -12.438  0.00  0.00     0.051 C 
BRANCH  33  34
HETATM   34  C   UNK     0      -4.114   7.222 -12.069  0.00  0.00     0.114 C 
BRANCH  34  35
HETATM   35  C   UNK     0      -4.994   7.490 -13.243  0.00  0.00     0.139 C 
HETATM   36  O   UNK     0      -6.038   6.799 -13.427  0.00  0.00    -0.650 OA
BRANCH  35  37
HETATM   37  O   UNK     0      -4.722   8.487 -14.171  0.00  0.00    -0.776 OA
HETATM   38  H   UNK     0      -3.949   8.423 -14.814  0.00  0.00     0.167 HD
ENDBRANCH  35  37
ENDBRANCH  34  35
ENDBRANCH  33  34
ENDBRANCH   6  33
BRANCH  27  39
HETATM   39  C   UNK     0      -2.250  -2.551 -11.855  0.00  0.00     0.051 C 
BRANCH  39  40
HETATM   40  C   UNK     0      -3.102  -3.734 -11.729  0.00  0.00     0.114 C 
BRANCH  40  41
HETATM   41  C   UNK     0      -3.230  -4.462 -10.487  0.00  0.00     0.139 C 
HETATM   42  O   UNK     0      -2.313  -4.573  -9.662  0.00  0.00    -0.650 OA
BRANCH  41  43
HETATM   43  O   UNK     0      -4.470  -5.091 -10.179  0.00  0.00    -0.776 OA
HETATM   44  H   UNK     0      -5.024  -5.342 -10.989  0.00  0.00     0.167 HD
ENDBRANCH  41  43
ENDBRANCH  40  41
ENDBRANCH  39  40
ENDBRANCH  27  39
BRANCH  11  45
HETATM   45  C   UNK     0       2.012   5.007  -6.374  0.00  0.00     0.051 C 
BRANCH  45  46
HETATM   46  C   UNK     0       3.454   5.080  -6.720  0.00  0.00     0.114 C 
BRANCH  46  47
HETATM   47  C   UNK     0       4.058   6.147  -5.871  0.00  0.00     0.139 C 
HETATM   48  O   UNK     0       3.751   7.326  -6.095  0.00  0.00    -0.650 OA
BRANCH  47  49
HETATM   49  O   UNK     0       4.937   5.832  -4.866  0.00  0.00    -0.776 OA
HETATM   50  H   UNK     0       5.935   5.670  -5.044  0.00  0.00     0.167 HD
ENDBRANCH  47  49
ENDBRANCH  46  47
ENDBRANCH  45  46
ENDBRANCH  11  45
BRANCH  18  51
HETATM   51  C   UNK     0       0.844  -1.873  -6.629  0.00  0.00     0.051 C 
BRANCH  51  52
HETATM   52  C   UNK     0       1.127  -3.078  -7.512  0.00  0.00     0.114 C 
BRANCH  52  53
HETATM   53  C   UNK     0       0.599  -4.326  -6.927  0.00  0.00     0.139 C 
HETATM   54  O   UNK     0       1.126  -4.807  -5.912  0.00  0.00    -0.650 OA
BRANCH  53  55
HETATM   55  O   UNK     0      -0.475  -4.950  -7.513  0.00  0.00    -0.776 OA
HETATM   56  H   UNK     0      -0.924  -5.772  -7.184  0.00  0.00     0.167 HD
ENDBRANCH  53  55
ENDBRANCH  52  53
ENDBRANCH  51  52
ENDBRANCH  18  51
TORSDOF 16
ENDMDL
MODEL 5
REMARK VINA RESULT:     -10.2      2.268      7.472
REMARK  16 active torsions:
REMARK  status: ('A' for Active; 'I' for Inactive)
REMARK    1  A    between atoms: C_6  and  C_7 
REMARK    2  A    between atoms: C_7  and  C_8 
REMARK    3  A    between atoms: C_8  and  C_9 
REMARK    4  A    between atoms: C_9  and  O_11 
REMARK    5  A    between atoms: C_16  and  C_17 
REMARK    6  A    between atoms: C_17  and  C_18 
REMARK    7  A    between atoms: C_18  and  C_19 
REMARK    8  A    between atoms: C_19  and  O_21 
REMARK    9  A    between atoms: C_28  and  C_29 
REMARK   10  A    between atoms: C_29  and  C_30 
REMARK   11  A    between atoms: C_30  and  C_31 
REMARK   12  A    between atoms: C_31  and  O_33 
REMARK   13  A    between atoms: C_42  and  C_43 
REMARK   14  A    between atoms: C_43  and  C_44 
REMARK   15  A    between atoms: C_44  and  C_45 
REMARK   16  A    between atoms: C_45  and  O_47 
ROOT
HETATM    1  C   UNK     0      -0.809   5.754  -9.782  0.00  0.00     0.051 C 
HETATM    2  C   UNK     0      -0.926   4.357  -9.207  0.00  0.00    -0.031 A 
HETATM    3  C   UNK     0      -2.027   3.518  -9.150  0.00  0.00     0.021 A 
HETATM    4  N   UNK     0      -1.678   2.373  -8.517  0.00  0.00    -0.361 N 
HETATM    5  C   UNK     0      -0.376   2.460  -8.177  0.00  0.00     0.022 A 
HETATM    6  C   UNK     0       0.125   3.690  -8.591  0.00  0.00    -0.027 A 
HETATM    7  C   UNK     0       0.514   1.435  -7.547  0.00  0.00     0.115 C 
HETATM    8  C   UNK     0       0.388   0.013  -8.064  0.00  0.00     0.021 A 
HETATM    9  N   UNK     0       0.143  -0.403  -9.316  0.00  0.00    -0.361 N 
HETATM   10  C   UNK     0       0.023  -1.748  -9.295  0.00  0.00     0.022 A 
HETATM   11  C   UNK     0       0.206  -2.211  -7.995  0.00  0.00    -0.027 A 
HETATM   12  C   UNK     0       0.436  -1.107  -7.215  0.00  0.00    -0.031 A 
HETATM   13  C   UNK     0       0.695  -1.129  -5.725  0.00  0.00     0.051 C 
HETATM   14  C   UNK     0      -0.319  -2.641 -10.484  0.00  0.00     0.115 C 
HETATM   15  C   UNK     0      -1.673  -2.343 -11.108  0.00  0.00     0.021 A 
HETATM   16  N   UNK     0      -2.097  -1.179 -11.634  0.00  0.00    -0.361 N 
HETATM   17  C   UNK     0      -3.370  -1.307 -12.014  0.00  0.00     0.022 A 
HETATM   18  C   UNK     0      -3.793  -2.621 -11.730  0.00  0.00    -0.027 A 
HETATM   19  C   UNK     0      -2.721  -3.260 -11.164  0.00  0.00    -0.031 A 
HETATM   20  C   UNK     0      -2.735  -4.717 -10.738  0.00  0.00     0.051 C 
HETATM   21  C   UNK     0      -4.321  -0.282 -12.590  0.00  0.00     0.115 C 
HETATM   22  C   UNK     0      -4.177   1.145 -12.118  0.00  0.00     0.022 A 
HETATM   23  N   UNK     0      -3.929   1.588 -10.878  0.00  0.00    -0.361 N 
HETATM   24  C   UNK     0      -3.737   2.922 -10.936  0.00  0.00     0.021 A 
HETATM   25  C   UNK     0      -3.875   3.349 -12.243  0.00  0.00    -0.031 A 
HETATM   26  C   UNK     0      -3.789   4.755 -12.800  0.00  0.00     0.051 C 
HETATM   27  C   UNK     0      -4.157   2.230 -13.018  0.00  0.00    -0.027 A 
HETATM   28  C   UNK     0      -3.338   3.853  -9.804  0.00  0.00     0.115 C 
HETATM   29  H   UNK     0      -2.364   1.527  -8.281  0.00  0.00     0.165 HD
HETATM   30  H   UNK     0       0.103   0.245 -10.225  0.00  0.00     0.165 HD
HETATM   31  H   UNK     0      -1.471  -0.261 -11.785  0.00  0.00     0.165 HD
HETATM   32  H   UNK     0      -3.931   0.970  -9.943  0.00  0.00     0.165 HD
ENDROOT
BRANCH   6  33
HETATM   33  C   UNK     0       1.508   4.273  -8.445  0.00  0.00     0.051 C 
BRANCH  33  34
HETATM   34  C   UNK     0       1.708   4.837  -7.058  0.00  0.00     0.114 C 
BRANCH  34  35
HETATM   35  C   UNK     0       3.164   4.759  -6.749  0.00  0.00     0.139 C 
HETATM   36  O   UNK     0       3.855   3.787  -7.175  0.00  0.00    -0.650 OA
BRANCH  35  37
HETATM   37  O   UNK     0       3.824   5.725  -6.000  0.00  0.00    -0.776 OA
HETATM   38  H   UNK     0       4.829   5.796  -5.985  0.00  0.00     0.167 HD
ENDBRANCH  35  37
ENDBRANCH  34  35
ENDBRANCH  33  34
ENDBRANCH   6  33
BRANCH  27  39
HETATM   39  C   UNK     0      -4.443   2.305 -14.476  0.00  0.00     0.051 C 
BRANCH  39  40
HETATM   40  C   UNK     0      -5.837   2.247 -14.914  0.00  0.00     0.114 C 
BRANCH  40  41
HETATM   41  C   UNK     0      -6.203   1.963 -16.284  0.00  0.00     0.139 C 
HETATM   42  O   UNK     0      -5.413   2.047 -17.234  0.00  0.00    -0.650 OA
BRANCH  41  43
HETATM   43  O   UNK     0      -7.539   1.564 -16.574  0.00  0.00    -0.776 OA
HETATM   44  H   UNK     0      -7.642   0.583 -16.804  0.00  0.00     0.167 HD
ENDBRANCH  41  43
ENDBRANCH  40  41
ENDBRANCH  39  40
ENDBRANCH  27  39
BRANCH  11  45
HETATM   45  C   UNK     0       0.172  -3.628  -7.487  0.00  0.00     0.051 C 
BRANCH  45  46
HETATM   46  C   UNK     0      -1.196  -4.182  -7.329  0.00  0.00     0.114 C 
BRANCH  46  47
HETATM   47  C   UNK     0      -1.190  -5.031  -6.103  0.00  0.00     0.139 C 
HETATM   48  O   UNK     0      -0.860  -4.514  -5.026  0.00  0.00    -0.650 OA
BRANCH  47  49
HETATM   49  O   UNK     0      -1.539  -6.357  -6.164  0.00  0.00    -0.776 OA
HETATM   50  H   UNK     0      -0.839  -7.100  -6.279  0.00  0.00     0.167 HD
ENDBRANCH  47  49
ENDBRANCH  46  47
ENDBRANCH  45  46
ENDBRANCH  11  45
BRANCH  18  51
HETATM   51  C   UNK     0      -5.140  -3.240 -12.003  0.00  0.00     0.051 C 
BRANCH  51  52
HETATM   52  C   UNK     0      -6.011  -2.912 -10.800  0.00  0.00     0.114 C 
BRANCH  52  53
HETATM   53  C   UNK     0      -6.552  -4.129 -10.165  0.00  0.00     0.139 C 
HETATM   54  O   UNK     0      -6.194  -5.249 -10.563  0.00  0.00    -0.650 OA
BRANCH  53  55
HETATM   55  O   UNK     0      -7.456  -4.015  -9.137  0.00  0.00    -0.776 OA
HETATM   56  H   UNK     0      -8.423  -3.811  -9.229  0.00  0.00     0.167 HD
ENDBRANCH  53  55
ENDBRANCH  52  53
ENDBRANCH  51  52
ENDBRANCH  18  51
TORSDOF 16
ENDMDL
MODEL 6
REMARK VINA RESULT:     -10.1      2.509      7.615
REMARK  16 active torsions:
REMARK  status: ('A' for Active; 'I' for Inactive)
REMARK    1  A    between atoms: C_6  and  C_7 
REMARK    2  A    between atoms: C_7  and  C_8 
REMARK    3  A    between atoms: C_8  and  C_9 
REMARK    4  A    between atoms: C_9  and  O_11 
REMARK    5  A    between atoms: C_16  and  C_17 
REMARK    6  A    between atoms: C_17  and  C_18 
REMARK    7  A    between atoms: C_18  and  C_19 
REMARK    8  A    between atoms: C_19  and  O_21 
REMARK    9  A    between atoms: C_28  and  C_29 
REMARK   10  A    between atoms: C_29  and  C_30 
REMARK   11  A    between atoms: C_30  and  C_31 
REMARK   12  A    between atoms: C_31  and  O_33 
REMARK   13  A    between atoms: C_42  and  C_43 
REMARK   14  A    between atoms: C_43  and  C_44 
REMARK   15  A    between atoms: C_44  and  C_45 
REMARK   16  A    between atoms: C_45  and  O_47 
ROOT
HETATM    1  C   UNK     0      -1.520  -3.485  -9.244  0.00  0.00     0.051 C 
HETATM    2  C   UNK     0      -2.076  -2.114  -9.572  0.00  0.00    -0.031 A 
HETATM    3  C   UNK     0      -2.249  -1.014  -8.747  0.00  0.00     0.021 A 
HETATM    4  N   UNK     0      -2.811  -0.010  -9.461  0.00  0.00    -0.361 N 
HETATM    5  C   UNK     0      -2.991  -0.443 -10.726  0.00  0.00     0.022 A 
HETATM    6  C   UNK     0      -2.545  -1.756 -10.830  0.00  0.00    -0.027 A 
HETATM    7  C   UNK     0      -3.486   0.302 -11.926  0.00  0.00     0.115 C 
HETATM    8  C   UNK     0      -2.959   1.714 -12.117  0.00  0.00     0.021 A 
HETATM    9  N   UNK     0      -1.738   2.195 -11.837  0.00  0.00    -0.361 N 
HETATM   10  C   UNK     0      -1.745   3.523 -12.080  0.00  0.00     0.022 A 
HETATM   11  C   UNK     0      -3.003   3.906 -12.537  0.00  0.00    -0.027 A 
HETATM   12  C   UNK     0      -3.772   2.771 -12.563  0.00  0.00    -0.031 A 
HETATM   13  C   UNK     0      -5.218   2.705 -13.001  0.00  0.00     0.051 C 
HETATM   14  C   UNK     0      -0.589   4.490 -11.841  0.00  0.00     0.115 C 
HETATM   15  C   UNK     0      -0.142   4.569 -10.390  0.00  0.00     0.021 A 
HETATM   16  N   UNK     0       0.304   3.565  -9.612  0.00  0.00    -0.361 N 
HETATM   17  C   UNK     0       0.528   4.030  -8.381  0.00  0.00     0.022 A 
HETATM   18  C   UNK     0       0.222   5.405  -8.358  0.00  0.00    -0.027 A 
HETATM   19  C   UNK     0      -0.195   5.730  -9.623  0.00  0.00    -0.031 A 
HETATM   20  C   UNK     0      -0.590   7.133 -10.046  0.00  0.00     0.051 C 
HETATM   21  C   UNK     0       0.962   3.300  -7.131  0.00  0.00     0.115 C 
HETATM   22  C   UNK     0       0.481   1.879  -6.949  0.00  0.00     0.022 A 
HETATM   23  N   UNK     0      -0.727   1.371  -7.223  0.00  0.00    -0.361 N 
HETATM   24  C   UNK     0      -0.674   0.035  -7.048  0.00  0.00     0.021 A 
HETATM   25  C   UNK     0       0.596  -0.324  -6.642  0.00  0.00    -0.031 A 
HETATM   26  C   UNK     0       1.131  -1.696  -6.284  0.00  0.00     0.051 C 
HETATM   27  C   UNK     0       1.354   0.839  -6.572  0.00  0.00    -0.027 A 
HETATM   28  C   UNK     0      -1.768  -0.983  -7.324  0.00  0.00     0.115 C 
HETATM   29  H   UNK     0      -3.112   0.984  -9.057  0.00  0.00     0.165 HD
HETATM   30  H   UNK     0      -0.854   1.592 -11.516  0.00  0.00     0.165 HD
HETATM   31  H   UNK     0       0.511   2.516  -9.950  0.00  0.00     0.165 HD
HETATM   32  H   UNK     0      -1.642   1.956  -7.501  0.00  0.00     0.165 HD
ENDROOT
BRANCH   6  33
HETATM   33  C   UNK     0      -2.532  -2.686 -12.017  0.00  0.00     0.051 C 
BRANCH  33  34
HETATM   34  C   UNK     0      -3.940  -3.050 -12.426  0.00  0.00     0.114 C 
BRANCH  34  35
HETATM   35  C   UNK     0      -4.646  -3.540 -11.208  0.00  0.00     0.139 C 
HETATM   36  O   UNK     0      -5.569  -2.850 -10.685  0.00  0.00    -0.650 OA
BRANCH  35  37
HETATM   37  O   UNK     0      -4.338  -4.751 -10.599  0.00  0.00    -0.776 OA
HETATM   38  H   UNK     0      -4.364  -5.624 -11.101  0.00  0.00     0.167 HD
ENDBRANCH  35  37
ENDBRANCH  34  35
ENDBRANCH  33  34
ENDBRANCH   6  33
BRANCH  27  39
HETATM   39  C   UNK     0       2.765   0.860  -6.098  0.00  0.00     0.051 C 
BRANCH  39  40
HETATM   40  C   UNK     0       3.812   1.219  -7.054  0.00  0.00     0.114 C 
BRANCH  40  41
HETATM   41  C   UNK     0       5.200   1.339  -6.667  0.00  0.00     0.139 C 
HETATM   42  O   UNK     0       5.588   1.300  -5.492  0.00  0.00    -0.650 OA
BRANCH  41  43
HETATM   43  O   UNK     0       6.187   1.513  -7.679  0.00  0.00    -0.776 OA
HETATM   44  H   UNK     0       6.516   0.650  -8.096  0.00  0.00     0.167 HD
ENDBRANCH  41  43
ENDBRANCH  40  41
ENDBRANCH  39  40
ENDBRANCH  27  39
BRANCH  11  45
HETATM   45  C   UNK     0      -3.482   5.274 -12.942  0.00  0.00     0.051 C 
BRANCH  45  46
HETATM   46  C   UNK     0      -3.770   6.178 -11.799  0.00  0.00     0.114 C 
BRANCH  46  47
HETATM   47  C   UNK     0      -4.204   7.486 -12.368  0.00  0.00     0.139 C 
HETATM   48  O   UNK     0      -4.221   8.478 -11.626  0.00  0.00    -0.650 OA
BRANCH  47  49
HETATM   49  O   UNK     0      -4.578   7.590 -13.684  0.00  0.00    -0.776 OA
HETATM   50  H   UNK     0      -3.956   7.309 -14.451  0.00  0.00     0.167 HD
ENDBRANCH  47  49
ENDBRANCH  46  47
ENDBRANCH  45  46
ENDBRANCH  11  45
BRANCH  18  51
HETATM   51  C   UNK     0       0.341   6.361  -7.200  0.00  0.00     0.051 C 
BRANCH  51  52
HETATM   52  C   UNK     0      -1.037   6.426  -6.558  0.00  0.00     0.114 C 
BRANCH  52  53
HETATM   53  C   UNK     0      -1.466   7.818  -6.318  0.00  0.00     0.139 C 
HETATM   54  O   UNK     0      -0.889   8.754  -6.894  0.00  0.00    -0.650 OA
BRANCH  53  55
HETATM   55  O   UNK     0      -2.502   8.069  -5.452  0.00  0.00    -0.776 OA
HETATM   56  H   UNK     0      -3.437   8.287  -5.707  0.00  0.00     0.167 HD
ENDBRANCH  53  55
ENDBRANCH  52  53
ENDBRANCH  51  52
ENDBRANCH  18  51
TORSDOF 16
ENDMDL
MODEL 7
REMARK VINA RESULT:     -10.1      2.475      7.240
REMARK  16 active torsions:
REMARK  status: ('A' for Active; 'I' for Inactive)
REMARK    1  A    between atoms: C_6  and  C_7 
REMARK    2  A    between atoms: C_7  and  C_8 
REMARK    3  A    between atoms: C_8  and  C_9 
REMARK    4  A    between atoms: C_9  and  O_11 
REMARK    5  A    between atoms: C_16  and  C_17 
REMARK    6  A    between atoms: C_17  and  C_18 
REMARK    7  A    between atoms: C_18  and  C_19 
REMARK    8  A    between atoms: C_19  and  O_21 
REMARK    9  A    between atoms: C_28  and  C_29 
REMARK   10  A    between atoms: C_29  and  C_30 
REMARK   11  A    between atoms: C_30  and  C_31 
REMARK   12  A    between atoms: C_31  and  O_33 
REMARK   13  A    between atoms: C_42  and  C_43 
REMARK   14  A    between atoms: C_43  and  C_44 
REMARK   15  A    between atoms: C_44  and  C_45 
REMARK   16  A    between atoms: C_45  and  O_47 
ROOT
HETATM    1  C   UNK     0      -4.809   3.985 -12.659  0.00  0.00     0.051 C 
HETATM    2  C   UNK     0      -3.966   4.109 -11.406  0.00  0.00    -0.031 A 
HETATM    3  C   UNK     0      -3.808   3.214 -10.359  0.00  0.00     0.021 A 
HETATM    4  N   UNK     0      -2.982   3.757  -9.435  0.00  0.00    -0.361 N 
HETATM    5  C   UNK     0      -2.602   4.975  -9.873  0.00  0.00     0.022 A 
HETATM    6  C   UNK     0      -3.203   5.229 -11.102  0.00  0.00    -0.027 A 
HETATM    7  C   UNK     0      -1.628   5.942  -9.274  0.00  0.00     0.115 C 
HETATM    8  C   UNK     0      -0.340   5.357  -8.723  0.00  0.00     0.021 A 
HETATM    9  N   UNK     0       0.377   4.324  -9.191  0.00  0.00    -0.361 N 
HETATM   10  C   UNK     0       1.395   4.097  -8.334  0.00  0.00     0.022 A 
HETATM   11  C   UNK     0       1.337   5.015  -7.290  0.00  0.00    -0.027 A 
HETATM   12  C   UNK     0       0.247   5.813  -7.529  0.00  0.00    -0.031 A 
HETATM   13  C   UNK     0      -0.206   6.960  -6.654  0.00  0.00     0.051 C 
HETATM   14  C   UNK     0       2.426   2.977  -8.435  0.00  0.00     0.115 C 
HETATM   15  C   UNK     0       1.826   1.581  -8.385  0.00  0.00     0.021 A 
HETATM   16  N   UNK     0       0.908   1.051  -9.215  0.00  0.00    -0.361 N 
HETATM   17  C   UNK     0       0.590  -0.175  -8.793  0.00  0.00     0.022 A 
HETATM   18  C   UNK     0       1.344  -0.461  -7.637  0.00  0.00    -0.027 A 
HETATM   19  C   UNK     0       2.115   0.646  -7.393  0.00  0.00    -0.031 A 
HETATM   20  C   UNK     0       3.110   0.746  -6.252  0.00  0.00     0.051 C 
HETATM   21  C   UNK     0      -0.431  -1.152  -9.327  0.00  0.00     0.115 C 
HETATM   22  C   UNK     0      -1.699  -0.583  -9.919  0.00  0.00     0.022 A 
HETATM   23  N   UNK     0      -2.432   0.448  -9.477  0.00  0.00    -0.361 N 
HETATM   24  C   UNK     0      -3.393   0.705 -10.386  0.00  0.00     0.021 A 
HETATM   25  C   UNK     0      -3.284  -0.188 -11.435  0.00  0.00    -0.031 A 
HETATM   26  C   UNK     0      -4.155  -0.323 -12.666  0.00  0.00     0.051 C 
HETATM   27  C   UNK     0      -2.207  -1.022 -11.158  0.00  0.00    -0.027 A 
HETATM   28  C   UNK     0      -4.407   1.836 -10.372  0.00  0.00     0.115 C 
HETATM   29  H   UNK     0      -2.703   3.293  -8.460  0.00  0.00     0.165 HD
HETATM   30  H   UNK     0       0.196   3.784 -10.153  0.00  0.00     0.165 HD
HETATM   31  H   UNK     0       0.511   1.533 -10.147  0.00  0.00     0.165 HD
HETATM   32  H   UNK     0      -2.303   0.976  -8.496  0.00  0.00     0.165 HD
ENDROOT
BRANCH   6  33
HETATM   33  C   UNK     0      -3.108   6.439 -11.997  0.00  0.00     0.051 C 
BRANCH  33  34
HETATM   34  C   UNK     0      -4.041   7.528 -11.523  0.00  0.00     0.114 C 
BRANCH  34  35
HETATM   35  C   UNK     0      -4.687   8.119 -12.731  0.00  0.00     0.139 C 
HETATM   36  O   UNK     0      -5.158   9.293 -12.691  0.00  0.00    -0.650 OA
BRANCH  35  37
HETATM   37  O   UNK     0      -4.799   7.431 -13.932  0.00  0.00    -0.776 OA
HETATM   38  H   UNK     0      -3.993   7.169 -14.476  0.00  0.00     0.167 HD
ENDBRANCH  35  37
ENDBRANCH  34  35
ENDBRANCH  33  34
ENDBRANCH   6  33
BRANCH  27  39
HETATM   39  C   UNK     0      -1.821  -2.164 -12.032  0.00  0.00     0.051 C 
BRANCH  39  40
HETATM   40  C   UNK     0      -0.623  -2.031 -12.860  0.00  0.00     0.114 C 
BRANCH  40  41
HETATM   41  C   UNK     0      -0.078  -0.742 -13.224  0.00  0.00     0.139 C 
HETATM   42  O   UNK     0       0.886  -0.220 -12.648  0.00  0.00    -0.650 OA
BRANCH  41  43
HETATM   43  O   UNK     0      -0.668  -0.022 -14.301  0.00  0.00    -0.776 OA
HETATM   44  H   UNK     0      -0.003   0.406 -14.934  0.00  0.00     0.167 HD
ENDBRANCH  41  43
ENDBRANCH  40  41
ENDBRANCH  39  40
ENDBRANCH  27  39
BRANCH  11  45
HETATM   45  C   UNK     0       2.259   5.158  -6.109  0.00  0.00     0.051 C 
BRANCH  45  46
HETATM   46  C   UNK     0       3.676   5.416  -6.473  0.00  0.00     0.114 C 
BRANCH  46  47
HETATM   47  C   UNK     0       4.110   6.629  -5.723  0.00  0.00     0.139 C 
HETATM   48  O   UNK     0       5.163   6.578  -5.072  0.00  0.00    -0.650 OA
BRANCH  47  49
HETATM   49  O   UNK     0       3.361   7.779  -5.752  0.00  0.00    -0.776 OA
HETATM   50  H   UNK     0       2.348   7.773  -5.588  0.00  0.00     0.167 HD
ENDBRANCH  47  49
ENDBRANCH  46  47
ENDBRANCH  45  46
ENDBRANCH  11  45
BRANCH  18  51
HETATM   51  C   UNK     0       1.345  -1.728  -6.822  0.00  0.00     0.051 C 
BRANCH  51  52
HETATM   52  C   UNK     0       0.082  -1.692  -5.976  0.00  0.00     0.114 C 
BRANCH  52  53
HETATM   53  C   UNK     0      -0.317  -3.039  -5.524  0.00  0.00     0.139 C 
HETATM   54  O   UNK     0      -1.238  -3.640  -6.099  0.00  0.00    -0.650 OA
BRANCH  53  55
HETATM   55  O   UNK     0       0.336  -3.621  -4.464  0.00  0.00    -0.776 OA
HETATM   56  H   UNK     0       0.860  -3.145  -3.769  0.00  0.00     0.167 HD
ENDBRANCH  53  55
ENDBRANCH  52  53
ENDBRANCH  51  52
ENDBRANCH  18  51
TORSDOF 16
ENDMDL
MODEL 8
REMARK VINA RESULT:     -10.1      2.777      9.789
REMARK  16 active torsions:
REMARK  status: ('A' for Active; 'I' for Inactive)
REMARK    1  A    between atoms: C_6  and  C_7 
REMARK    2  A    between atoms: C_7  and  C_8 
REMARK    3  A    between atoms: C_8  and  C_9 
REMARK    4  A    between atoms: C_9  and  O_11 
REMARK    5  A    between atoms: C_16  and  C_17 
REMARK    6  A    between atoms: C_17  and  C_18 
REMARK    7  A    between atoms: C_18  and  C_19 
REMARK    8  A    between atoms: C_19  and  O_21 
REMARK    9  A    between atoms: C_28  and  C_29 
REMARK   10  A    between atoms: C_29  and  C_30 
REMARK   11  A    between atoms: C_30  and  C_31 
REMARK   12  A    between atoms: C_31  and  O_33 
REMARK   13  A    between atoms: C_42  and  C_43 
REMARK   14  A    between atoms: C_43  and  C_44 
REMARK   15  A    between atoms: C_44  and  C_45 
REMARK   16  A    between atoms: C_45  and  O_47 
ROOT
HETATM    1  C   UNK     0      -2.060  -1.361 -12.394  0.00  0.00     0.051 C 
HETATM    2  C   UNK     0      -1.365  -0.152 -11.800  0.00  0.00    -0.031 A 
HETATM    3  C   UNK     0      -1.193   1.115 -12.335  0.00  0.00     0.021 A 
HETATM    4  N   UNK     0      -0.481   1.868 -11.464  0.00  0.00    -0.361 N 
HETATM    5  C   UNK     0      -0.203   1.112 -10.382  0.00  0.00     0.022 A 
HETATM    6  C   UNK     0      -0.739  -0.159 -10.560  0.00  0.00    -0.027 A 
HETATM    7  C   UNK     0       0.473   1.493  -9.102  0.00  0.00     0.115 C 
HETATM    8  C   UNK     0       0.083   2.831  -8.497  0.00  0.00     0.021 A 
HETATM    9  N   UNK     0      -1.118   3.428  -8.494  0.00  0.00    -0.361 N 
HETATM   10  C   UNK     0      -0.980   4.645  -7.925  0.00  0.00     0.022 A 
HETATM   11  C   UNK     0       0.345   4.832  -7.543  0.00  0.00    -0.027 A 
HETATM   12  C   UNK     0       1.021   3.693  -7.900  0.00  0.00    -0.031 A 
HETATM   13  C   UNK     0       2.495   3.443  -7.674  0.00  0.00     0.051 C 
HETATM   14  C   UNK     0      -2.075   5.696  -7.768  0.00  0.00     0.115 C 
HETATM   15  C   UNK     0      -2.664   6.173  -9.086  0.00  0.00     0.021 A 
HETATM   16  N   UNK     0      -3.268   5.430 -10.032  0.00  0.00    -0.361 N 
HETATM   17  C   UNK     0      -3.583   6.211 -11.068  0.00  0.00     0.022 A 
HETATM   18  C   UNK     0      -3.173   7.527 -10.779  0.00  0.00    -0.027 A 
HETATM   19  C   UNK     0      -2.600   7.490  -9.534  0.00  0.00    -0.031 A 
HETATM   20  C   UNK     0      -2.053   8.713  -8.820  0.00  0.00     0.051 C 
HETATM   21  C   UNK     0      -4.203   5.855 -12.400  0.00  0.00     0.115 C 
HETATM   22  C   UNK     0      -3.858   4.508 -12.992  0.00  0.00     0.022 A 
HETATM   23  N   UNK     0      -2.672   3.887 -13.007  0.00  0.00    -0.361 N 
HETATM   24  C   UNK     0      -2.849   2.647 -13.506  0.00  0.00     0.021 A 
HETATM   25  C   UNK     0      -4.180   2.470 -13.831  0.00  0.00    -0.031 A 
HETATM   26  C   UNK     0      -4.857   1.268 -14.457  0.00  0.00     0.051 C 
HETATM   27  C   UNK     0      -4.846   3.647 -13.512  0.00  0.00    -0.027 A 
HETATM   28  C   UNK     0      -1.817   1.540 -13.634  0.00  0.00     0.115 C 
HETATM   29  H   UNK     0      -0.146   2.917 -11.637  0.00  0.00     0.165 HD
HETATM   30  H   UNK     0      -2.076   2.974  -8.847  0.00  0.00     0.165 HD
HETATM   31  H   UNK     0      -3.521   4.341  -9.948  0.00  0.00     0.165 HD
HETATM   32  H   UNK     0      -1.689   4.334 -12.704  0.00  0.00     0.165 HD
ENDROOT
BRANCH   6  33
HETATM   33  C   UNK     0      -0.700  -1.364  -9.655  0.00  0.00     0.051 C 
BRANCH  33  34
HETATM   34  C   UNK     0      -1.961  -1.453  -8.828  0.00  0.00     0.114 C 
BRANCH  34  35
HETATM   35  C   UNK     0      -1.639  -0.941  -7.466  0.00  0.00     0.139 C 
HETATM   36  O   UNK     0      -0.694  -1.455  -6.798  0.00  0.00    -0.650 OA
BRANCH  35  37
HETATM   37  O   UNK     0      -2.339   0.103  -6.873  0.00  0.00    -0.776 OA
HETATM   38  H   UNK     0      -2.258   1.053  -7.197  0.00  0.00     0.167 HD
ENDBRANCH  35  37
ENDBRANCH  34  35
ENDBRANCH  33  34
ENDBRANCH   6  33
BRANCH  27  39
HETATM   39  C   UNK     0      -6.293   3.861 -13.788  0.00  0.00     0.051 C 
BRANCH  39  40
HETATM   40  C   UNK     0      -7.089   4.585 -12.797  0.00  0.00     0.114 C 
BRANCH  40  41
HETATM   41  C   UNK     0      -8.229   5.394 -13.167  0.00  0.00     0.139 C 
HETATM   42  O   UNK     0      -8.228   6.181 -14.123  0.00  0.00    -0.650 OA
BRANCH  41  43
HETATM   43  O   UNK     0      -9.425   5.292 -12.401  0.00  0.00    -0.776 OA
HETATM   44  H   UNK     0     -10.191   5.860 -12.743  0.00  0.00     0.167 HD
ENDBRANCH  41  43
ENDBRANCH  40  41
ENDBRANCH  39  40
ENDBRANCH  27  39
BRANCH  11  45
HETATM   45  C   UNK     0       0.972   6.022  -6.867  0.00  0.00     0.051 C 
BRANCH  45  46
HETATM   46  C   UNK     0      -0.002   6.914  -6.187  0.00  0.00     0.114 C 
BRANCH  46  47
HETATM   47  C   UNK     0       0.713   8.182  -5.864  0.00  0.00     0.139 C 
HETATM   48  O   UNK     0       0.734   9.083  -6.714  0.00  0.00    -0.650 OA
BRANCH  47  49
HETATM   49  O   UNK     0       1.335   8.349  -4.652  0.00  0.00    -0.776 OA
HETATM   50  H   UNK     0       0.956   8.966  -3.925  0.00  0.00     0.167 HD
ENDBRANCH  47  49
ENDBRANCH  46  47
ENDBRANCH  45  46
ENDBRANCH  11  45
BRANCH  18  51
HETATM   51  C   UNK     0      -3.337   8.757 -11.634  0.00  0.00     0.051 C 
BRANCH  51  52
HETATM   52  C   UNK     0      -4.727   9.299 -11.338  0.00  0.00     0.114 C 
BRANCH  52  53
HETATM   53  C   UNK     0      -4.799  10.761 -11.530  0.00  0.00     0.139 C 
HETATM   54  O   UNK     0      -3.875  11.359 -12.104  0.00  0.00    -0.650 OA
BRANCH  53  55
HETATM   55  O   UNK     0      -5.892  11.454 -11.068  0.00  0.00    -0.776 OA
HETATM   56  H   UNK     0      -6.689  11.710 -11.602  0.00  0.00     0.167 HD
ENDBRANCH  53  55
ENDBRANCH  52  53
ENDBRANCH  51  52
ENDBRANCH  18  51
TORSDOF 16
ENDMDL
MODEL 9
REMARK VINA RESULT:     -10.1      2.492      7.711
REMARK  16 active torsions:
REMARK  status: ('A' for Active; 'I' for Inactive)
REMARK    1  A    between atoms: C_6  and  C_7 
REMARK    2  A    between atoms: C_7  and  C_8 
REMARK    3  A    between atoms: C_8  and  C_9 
REMARK    4  A    between atoms: C_9  and  O_11 
REMARK    5  A    between atoms: C_16  and  C_17 
REMARK    6  A    between atoms: C_17  and  C_18 
REMARK    7  A    between atoms: C_18  and  C_19 
REMARK    8  A    between atoms: C_19  and  O_21 
REMARK    9  A    between atoms: C_28  and  C_29 
REMARK   10  A    between atoms: C_29  and  C_30 
REMARK   11  A    between atoms: C_30  and  C_31 
REMARK   12  A    between atoms: C_31  and  O_33 
REMARK   13  A    between atoms: C_42  and  C_43 
REMARK   14  A    between atoms: C_43  and  C_44 
REMARK   15  A    between atoms: C_44  and  C_45 
REMARK   16  A    between atoms: C_45  and  O_47 
ROOT
HETATM    1  C   UNK     0      -0.483   5.606 -10.117  0.00  0.00     0.051 C 
HETATM    2  C   UNK     0      -0.658   4.245  -9.475  0.00  0.00    -0.031 A 
HETATM    3  C   UNK     0      -1.800   3.469  -9.356  0.00  0.00     0.021 A 
HETATM    4  N   UNK     0      -1.496   2.336  -8.679  0.00  0.00    -0.361 N 
HETATM    5  C   UNK     0      -0.183   2.370  -8.371  0.00  0.00     0.022 A 
HETATM    6  C   UNK     0       0.371   3.551  -8.852  0.00  0.00    -0.027 A 
HETATM    7  C   UNK     0       0.668   1.328  -7.714  0.00  0.00     0.115 C 
HETATM    8  C   UNK     0       0.455  -0.107  -8.162  0.00  0.00     0.021 A 
HETATM    9  N   UNK     0       0.158  -0.566  -9.388  0.00  0.00    -0.361 N 
HETATM   10  C   UNK     0      -0.031  -1.900  -9.302  0.00  0.00     0.022 A 
HETATM   11  C   UNK     0       0.159  -2.313  -7.987  0.00  0.00    -0.027 A 
HETATM   12  C   UNK     0       0.466  -1.189  -7.263  0.00  0.00    -0.031 A 
HETATM   13  C   UNK     0       0.760  -1.157  -5.780  0.00  0.00     0.051 C 
HETATM   14  C   UNK     0      -0.448  -2.826 -10.441  0.00  0.00     0.115 C 
HETATM   15  C   UNK     0      -1.800  -2.485 -11.047  0.00  0.00     0.021 A 
HETATM   16  N   UNK     0      -2.175  -1.325 -11.617  0.00  0.00    -0.361 N 
HETATM   17  C   UNK     0      -3.462  -1.403 -11.963  0.00  0.00     0.022 A 
HETATM   18  C   UNK     0      -3.946  -2.678 -11.609  0.00  0.00    -0.027 A 
HETATM   19  C   UNK     0      -2.895  -3.347 -11.038  0.00  0.00    -0.031 A 
HETATM   20  C   UNK     0      -2.974  -4.780 -10.545  0.00  0.00     0.051 C 
HETATM   21  C   UNK     0      -4.372  -0.356 -12.565  0.00  0.00     0.115 C 
HETATM   22  C   UNK     0      -4.143   1.082 -12.162  0.00  0.00     0.022 A 
HETATM   23  N   UNK     0      -3.842   1.567 -10.950  0.00  0.00    -0.361 N 
HETATM   24  C   UNK     0      -3.582   2.884 -11.074  0.00  0.00     0.021 A 
HETATM   25  C   UNK     0      -3.729   3.259 -12.396  0.00  0.00    -0.031 A 
HETATM   26  C   UNK     0      -3.584   4.631 -13.019  0.00  0.00     0.051 C 
HETATM   27  C   UNK     0      -4.088   2.122 -13.112  0.00  0.00    -0.027 A 
HETATM   28  C   UNK     0      -3.108   3.843  -9.995  0.00  0.00     0.115 C 
HETATM   29  H   UNK     0      -2.219   1.540  -8.388  0.00  0.00     0.165 HD
HETATM   30  H   UNK     0       0.130   0.042 -10.325  0.00  0.00     0.165 HD
HETATM   31  H   UNK     0      -1.506  -0.450 -11.824  0.00  0.00     0.165 HD
HETATM   32  H   UNK     0      -3.852   0.992  -9.988  0.00  0.00     0.165 HD
ENDROOT
BRANCH   6  33
HETATM   33  C   UNK     0       1.786   4.066  -8.764  0.00  0.00     0.051 C 
BRANCH  33  34
HETATM   34  C   UNK     0       2.758   3.058  -9.331  0.00  0.00     0.114 C 
BRANCH  34  35
HETATM   35  C   UNK     0       2.835   3.291 -10.802  0.00  0.00     0.139 C 
HETATM   36  O   UNK     0       2.454   4.393 -11.294  0.00  0.00    -0.650 OA
BRANCH  35  37
HETATM   37  O   UNK     0       3.318   2.335 -11.687  0.00  0.00    -0.776 OA
HETATM   38  H   UNK     0       2.752   1.960 -12.431  0.00  0.00     0.167 HD
ENDBRANCH  35  37
ENDBRANCH  34  35
ENDBRANCH  33  34
ENDBRANCH   6  33
BRANCH  27  39
HETATM   39  C   UNK     0      -4.405   2.147 -14.565  0.00  0.00     0.051 C 
BRANCH  39  40
HETATM   40  C   UNK     0      -5.811   2.172 -14.969  0.00  0.00     0.114 C 
BRANCH  40  41
HETATM   41  C   UNK     0      -6.224   1.941 -16.335  0.00  0.00     0.139 C 
HETATM   42  O   UNK     0      -5.462   2.040 -17.306  0.00  0.00    -0.650 OA
BRANCH  41  43
HETATM   43  O   UNK     0      -7.577   1.581 -16.596  0.00  0.00    -0.776 OA
HETATM   44  H   UNK     0      -7.783   0.599 -16.457  0.00  0.00     0.167 HD
ENDBRANCH  41  43
ENDBRANCH  40  41
ENDBRANCH  39  40
ENDBRANCH  27  39
BRANCH  11  45
HETATM   45  C   UNK     0       0.064  -3.701  -7.413  0.00  0.00     0.051 C 
BRANCH  45  46
HETATM   46  C   UNK     0      -1.134  -3.926  -6.565  0.00  0.00     0.114 C 
BRANCH  46  47
HETATM   47  C   UNK     0      -0.772  -4.961  -5.554  0.00  0.00     0.139 C 
HETATM   48  O   UNK     0      -0.071  -4.626  -4.588  0.00  0.00    -0.650 OA
BRANCH  47  49
HETATM   49  O   UNK     0      -1.203  -6.256  -5.690  0.00  0.00    -0.776 OA
HETATM   50  H   UNK     0      -0.830  -6.882  -6.414  0.00  0.00     0.167 HD
ENDBRANCH  47  49
ENDBRANCH  46  47
ENDBRANCH  45  46
ENDBRANCH  11  45
BRANCH  18  51
HETATM   51  C   UNK     0      -5.329  -3.236 -11.824  0.00  0.00     0.051 C 
BRANCH  51  52
HETATM   52  C   UNK     0      -6.133  -2.869 -10.586  0.00  0.00     0.114 C 
BRANCH  52  53
HETATM   53  C   UNK     0      -6.781  -4.049  -9.981  0.00  0.00     0.139 C 
HETATM   54  O   UNK     0      -7.627  -3.902  -9.084  0.00  0.00    -0.650 OA
BRANCH  53  55
HETATM   55  O   UNK     0      -6.440  -5.308 -10.413  0.00  0.00    -0.776 OA
HETATM   56  H   UNK     0      -5.619  -5.808 -10.164  0.00  0.00     0.167 HD
ENDBRANCH  53  55
ENDBRANCH  52  53
ENDBRANCH  51  52
ENDBRANCH  18  51
TORSDOF 16
ENDMDL
MODEL 10
REMARK VINA RESULT:     -10.0      2.670      9.301
REMARK  16 active torsions:
REMARK  status: ('A' for Active; 'I' for Inactive)
REMARK    1  A    between atoms: C_6  and  C_7 
REMARK    2  A    between atoms: C_7  and  C_8 
REMARK    3  A    between atoms: C_8  and  C_9 
REMARK    4  A    between atoms: C_9  and  O_11 
REMARK    5  A    between atoms: C_16  and  C_17 
REMARK    6  A    between atoms: C_17  and  C_18 
REMARK    7  A    between atoms: C_18  and  C_19 
REMARK    8  A    between atoms: C_19  and  O_21 
REMARK    9  A    between atoms: C_28  and  C_29 
REMARK   10  A    between atoms: C_29  and  C_30 
REMARK   11  A    between atoms: C_30  and  C_31 
REMARK   12  A    between atoms: C_31  and  O_33 
REMARK   13  A    between atoms: C_42  and  C_43 
REMARK   14  A    between atoms: C_43  and  C_44 
REMARK   15  A    between atoms: C_44  and  C_45 
REMARK   16  A    between atoms: C_45  and  O_47 
ROOT
HETATM    1  C   UNK     0      -4.877   0.164 -13.304  0.00  0.00     0.051 C 
HETATM    2  C   UNK     0      -3.760  -0.441 -12.478  0.00  0.00    -0.031 A 
HETATM    3  C   UNK     0      -2.418  -0.097 -12.428  0.00  0.00     0.021 A 
HETATM    4  N   UNK     0      -1.781  -0.930 -11.570  0.00  0.00    -0.361 N 
HETATM    5  C   UNK     0      -2.689  -1.791 -11.066  0.00  0.00     0.022 A 
HETATM    6  C   UNK     0      -3.937  -1.515 -11.615  0.00  0.00    -0.027 A 
HETATM    7  C   UNK     0      -2.523  -2.843 -10.015  0.00  0.00     0.115 C 
HETATM    8  C   UNK     0      -1.693  -2.467  -8.800  0.00  0.00     0.021 A 
HETATM    9  N   UNK     0      -1.611  -1.281  -8.178  0.00  0.00    -0.361 N 
HETATM   10  C   UNK     0      -0.681  -1.382  -7.204  0.00  0.00     0.022 A 
HETATM   11  C   UNK     0      -0.157  -2.672  -7.192  0.00  0.00    -0.027 A 
HETATM   12  C   UNK     0      -0.790  -3.361  -8.195  0.00  0.00    -0.031 A 
HETATM   13  C   UNK     0      -0.543  -4.809  -8.552  0.00  0.00     0.051 C 
HETATM   14  C   UNK     0      -0.214  -0.258  -6.284  0.00  0.00     0.115 C 
HETATM   15  C   UNK     0       0.412   0.917  -7.017  0.00  0.00     0.021 A 
HETATM   16  N   UNK     0      -0.151   1.689  -7.966  0.00  0.00    -0.361 N 
HETATM   17  C   UNK     0       0.750   2.568  -8.409  0.00  0.00     0.022 A 
HETATM   18  C   UNK     0       1.956   2.366  -7.709  0.00  0.00    -0.027 A 
HETATM   19  C   UNK     0       1.731   1.331  -6.840  0.00  0.00    -0.031 A 
HETATM   20  C   UNK     0       2.768   0.809  -5.862  0.00  0.00     0.051 C 
HETATM   21  C   UNK     0       0.643   3.598  -9.510  0.00  0.00     0.115 C 
HETATM   22  C   UNK     0      -0.216   3.255 -10.705  0.00  0.00     0.022 A 
HETATM   23  N   UNK     0      -0.320   2.082 -11.343  0.00  0.00    -0.361 N 
HETATM   24  C   UNK     0      -1.306   2.183 -12.257  0.00  0.00     0.021 A 
HETATM   25  C   UNK     0      -1.842   3.456 -12.214  0.00  0.00    -0.031 A 
HETATM   26  C   UNK     0      -2.937   4.058 -13.070  0.00  0.00     0.051 C 
HETATM   27  C   UNK     0      -1.161   4.161 -11.229  0.00  0.00    -0.027 A 
HETATM   28  C   UNK     0      -1.855   1.090 -13.157  0.00  0.00     0.115 C 
HETATM   29  H   UNK     0      -0.687  -0.929 -11.357  0.00  0.00     0.165 HD
HETATM   30  H   UNK     0      -2.243  -0.385  -8.391  0.00  0.00     0.165 HD
HETATM   31  H   UNK     0      -1.222   1.644  -8.296  0.00  0.00     0.165 HD
HETATM   32  H   UNK     0       0.331   1.184 -11.183  0.00  0.00     0.165 HD
ENDROOT
BRANCH   6  33
HETATM   33  C   UNK     0      -5.267  -2.186 -11.387  0.00  0.00     0.051 C 
BRANCH  33  34
HETATM   34  C   UNK     0      -5.172  -3.669 -11.660  0.00  0.00     0.114 C 
BRANCH  34  35
HETATM   35  C   UNK     0      -5.907  -4.372 -10.570  0.00  0.00     0.139 C 
HETATM   36  O   UNK     0      -6.726  -3.738  -9.842  0.00  0.00    -0.650 OA
BRANCH  35  37
HETATM   37  O   UNK     0      -5.738  -5.725 -10.303  0.00  0.00    -0.776 OA
HETATM   38  H   UNK     0      -6.017  -6.438 -10.959  0.00  0.00     0.167 HD
ENDBRANCH  35  37
ENDBRANCH  34  35
ENDBRANCH  33  34
ENDBRANCH   6  33
BRANCH  27  39
HETATM   39  C   UNK     0      -1.413   5.599 -10.939  0.00  0.00     0.051 C 
BRANCH  39  40
HETATM   40  C   UNK     0      -2.443   5.938  -9.957  0.00  0.00     0.114 C 
BRANCH  40  41
HETATM   41  C   UNK     0      -2.257   5.722  -8.540  0.00  0.00     0.139 C 
HETATM   42  O   UNK     0      -1.238   6.062  -7.924  0.00  0.00    -0.650 OA
BRANCH  41  43
HETATM   43  O   UNK     0      -3.292   5.085  -7.797  0.00  0.00    -0.776 OA
HETATM   44  H   UNK     0      -4.077   5.685  -7.573  0.00  0.00     0.167 HD
ENDBRANCH  41  43
ENDBRANCH  40  41
ENDBRANCH  39  40
ENDBRANCH  27  39
BRANCH  11  45
HETATM   45  C   UNK     0       0.892  -3.253  -6.284  0.00  0.00     0.051 C 
BRANCH  45  46
HETATM   46  C   UNK     0       0.405  -3.564  -4.916  0.00  0.00     0.114 C 
BRANCH  46  47
HETATM   47  C   UNK     0      -0.164  -4.942  -4.951  0.00  0.00     0.139 C 
HETATM   48  O   UNK     0       0.602  -5.903  -4.795  0.00  0.00    -0.650 OA
BRANCH  47  49
HETATM   49  O   UNK     0      -1.506  -5.143  -5.155  0.00  0.00    -0.776 OA
HETATM   50  H   UNK     0      -1.889  -5.369  -6.080  0.00  0.00     0.167 HD
ENDBRANCH  47  49
ENDBRANCH  46  47
ENDBRANCH  45  46
ENDBRANCH  11  45
BRANCH  18  51
HETATM   51  C   UNK     0       3.246   3.132  -7.846  0.00  0.00     0.051 C 
BRANCH  51  52
HETATM   52  C   UNK     0       4.048   2.426  -8.929  0.00  0.00     0.114 C 
BRANCH  52  53
HETATM   53  C   UNK     0       3.759   2.969 -10.270  0.00  0.00     0.139 C 
HETATM   54  O   UNK     0       3.333   2.221 -11.165  0.00  0.00    -0.650 OA
BRANCH  53  55
HETATM   55  O   UNK     0       3.967   4.303 -10.523  0.00  0.00    -0.776 OA
HETATM   56  H   UNK     0       4.849   4.750 -10.611  0.00  0.00     0.167 HD
ENDBRANCH  53  55
ENDBRANCH  52  53
ENDBRANCH  51  52
ENDBRANCH  18  51
TORSDOF 16
ENDMDL
MODEL 11
REMARK VINA RESULT:      -9.7      3.009      7.630
REMARK  16 active torsions:
REMARK  status: ('A' for Active; 'I' for Inactive)
REMARK    1  A    between atoms: C_6  and  C_7 
REMARK    2  A    between atoms: C_7  and  C_8 
REMARK    3  A    between atoms: C_8  and  C_9 
REMARK    4  A    between atoms: C_9  and  O_11 
REMARK    5  A    between atoms: C_16  and  C_17 
REMARK    6  A    between atoms: C_17  and  C_18 
REMARK    7  A    between atoms: C_18  and  C_19 
REMARK    8  A    between atoms: C_19  and  O_21 
REMARK    9  A    between atoms: C_28  and  C_29 
REMARK   10  A    between atoms: C_29  and  C_30 
REMARK   11  A    between atoms: C_30  and  C_31 
REMARK   12  A    between atoms: C_31  and  O_33 
REMARK   13  A    between atoms: C_42  and  C_43 
REMARK   14  A    between atoms: C_43  and  C_44 
REMARK   15  A    between atoms: C_44  and  C_45 
REMARK   16  A    between atoms: C_45  and  O_47 
ROOT
HETATM    1  C   UNK     0      -1.494  -2.225 -11.002  0.00  0.00     0.051 C 
HETATM    2  C   UNK     0      -2.165  -0.866 -10.994  0.00  0.00    -0.031 A 
HETATM    3  C   UNK     0      -2.363   0.010  -9.939  0.00  0.00     0.021 A 
HETATM    4  N   UNK     0      -3.038   1.096 -10.387  0.00  0.00    -0.361 N 
HETATM    5  C   UNK     0      -3.266   0.933 -11.707  0.00  0.00     0.022 A 
HETATM    6  C   UNK     0      -2.736  -0.285 -12.118  0.00  0.00    -0.027 A 
HETATM    7  C   UNK     0      -3.887   1.878 -12.689  0.00  0.00     0.115 C 
HETATM    8  C   UNK     0      -3.474   3.336 -12.587  0.00  0.00     0.021 A 
HETATM    9  N   UNK     0      -2.275   3.844 -12.264  0.00  0.00    -0.361 N 
HETATM   10  C   UNK     0      -2.391   5.188 -12.207  0.00  0.00     0.022 A 
HETATM   11  C   UNK     0      -3.699   5.555 -12.511  0.00  0.00    -0.027 A 
HETATM   12  C   UNK     0      -4.386   4.393 -12.751  0.00  0.00    -0.031 A 
HETATM   13  C   UNK     0      -5.848   4.304 -13.126  0.00  0.00     0.051 C 
HETATM   14  C   UNK     0      -1.293   6.172 -11.814  0.00  0.00     0.115 C 
HETATM   15  C   UNK     0      -0.762   5.971 -10.403  0.00  0.00     0.021 A 
HETATM   16  N   UNK     0      -0.199   4.863  -9.888  0.00  0.00    -0.361 N 
HETATM   17  C   UNK     0       0.068   5.067  -8.596  0.00  0.00     0.022 A 
HETATM   18  C   UNK     0      -0.332   6.375  -8.256  0.00  0.00    -0.027 A 
HETATM   19  C   UNK     0      -0.849   6.931  -9.397  0.00  0.00    -0.031 A 
HETATM   20  C   UNK     0      -1.368   8.355  -9.482  0.00  0.00     0.051 C 
HETATM   21  C   UNK     0       0.630   4.122  -7.558  0.00  0.00     0.115 C 
HETATM   22  C   UNK     0       0.263   2.661  -7.673  0.00  0.00     0.022 A 
HETATM   23  N   UNK     0      -0.921   2.126  -7.997  0.00  0.00    -0.361 N 
HETATM   24  C   UNK     0      -0.763   0.793  -8.124  0.00  0.00     0.021 A 
HETATM   25  C   UNK     0       0.553   0.461  -7.866  0.00  0.00    -0.031 A 
HETATM   26  C   UNK     0       1.204  -0.907  -7.844  0.00  0.00     0.051 C 
HETATM   27  C   UNK     0       1.229   1.640  -7.575  0.00  0.00    -0.027 A 
HETATM   28  C   UNK     0      -1.797  -0.227  -8.567  0.00  0.00     0.115 C 
HETATM   29  H   UNK     0      -3.383   1.950  -9.760  0.00  0.00     0.165 HD
HETATM   30  H   UNK     0      -1.332   3.261 -12.125  0.00  0.00     0.165 HD
HETATM   31  H   UNK     0       0.060   3.933 -10.458  0.00  0.00     0.165 HD
HETATM   32  H   UNK     0      -1.891   2.680  -8.096  0.00  0.00     0.165 HD
ENDROOT
BRANCH   6  33
HETATM   33  C   UNK     0      -2.732  -0.931 -13.481  0.00  0.00     0.051 C 
BRANCH  33  34
HETATM   34  C   UNK     0      -2.093  -0.021 -14.503  0.00  0.00     0.114 C 
BRANCH  34  35
HETATM   35  C   UNK     0      -0.761   0.384 -13.969  0.00  0.00     0.139 C 
HETATM   36  O   UNK     0      -0.482   1.609 -13.813  0.00  0.00    -0.650 OA
BRANCH  35  37
HETATM   37  O   UNK     0       0.218  -0.538 -13.621  0.00  0.00    -0.776 OA
HETATM   38  H   UNK     0       0.001  -1.504 -13.436  0.00  0.00     0.167 HD
ENDBRANCH  35  37
ENDBRANCH  34  35
ENDBRANCH  33  34
ENDBRANCH   6  33
BRANCH  27  39
HETATM   39  C   UNK     0       2.662   1.674  -7.174  0.00  0.00     0.051 C 
BRANCH  39  40
HETATM   40  C   UNK     0       3.678   1.670  -8.226  0.00  0.00     0.114 C 
BRANCH  40  41
HETATM   41  C   UNK     0       3.834   2.771  -9.150  0.00  0.00     0.139 C 
HETATM   42  O   UNK     0       4.139   3.919  -8.799  0.00  0.00    -0.650 OA
BRANCH  41  43
HETATM   43  O   UNK     0       3.631   2.541 -10.540  0.00  0.00    -0.776 OA
HETATM   44  H   UNK     0       3.855   3.332 -11.133  0.00  0.00     0.167 HD
ENDBRANCH  41  43
ENDBRANCH  40  41
ENDBRANCH  39  40
ENDBRANCH  27  39
BRANCH  11  45
HETATM   45  C   UNK     0      -4.297   6.934 -12.581  0.00  0.00     0.051 C 
BRANCH  45  46
HETATM   46  C   UNK     0      -3.988   7.790 -11.406  0.00  0.00     0.114 C 
BRANCH  46  47
HETATM   47  C   UNK     0      -4.357   9.188 -11.769  0.00  0.00     0.139 C 
HETATM   48  O   UNK     0      -5.106   9.819 -11.009  0.00  0.00    -0.650 OA
BRANCH  47  49
HETATM   49  O   UNK     0      -3.881   9.765 -12.918  0.00  0.00    -0.776 OA
HETATM   50  H   UNK     0      -2.945  10.186 -12.970  0.00  0.00     0.167 HD
ENDBRANCH  47  49
ENDBRANCH  46  47
ENDBRANCH  45  46
ENDBRANCH  11  45
BRANCH  18  51
HETATM   51  C   UNK     0      -0.208   7.064  -6.922  0.00  0.00     0.051 C 
BRANCH  51  52
HETATM   52  C   UNK     0      -1.365   6.558  -6.072  0.00  0.00     0.114 C 
BRANCH  52  53
HETATM   53  C   UNK     0      -2.534   7.456  -6.145  0.00  0.00     0.139 C 
HETATM   54  O   UNK     0      -3.420   7.254  -6.991  0.00  0.00    -0.650 OA
BRANCH  53  55
HETATM   55  O   UNK     0      -2.633   8.515  -5.277  0.00  0.00    -0.776 OA
HETATM   56  H   UNK     0      -2.651   8.458  -4.286  0.00  0.00     0.167 HD
ENDBRANCH  53  55
ENDBRANCH  52  53
ENDBRANCH  51  52
ENDBRANCH  18  51
TORSDOF 16
ENDMDL
MODEL 12
REMARK VINA RESULT:      -9.6      2.719      7.490
REMARK  16 active torsions:
REMARK  status: ('A' for Active; 'I' for Inactive)
REMARK    1  A    between atoms: C_6  and  C_7 
REMARK    2  A    between atoms: C_7  and  C_8 
REMARK    3  A    between atoms: C_8  and  C_9 
REMARK    4  A    between atoms: C_9  and  O_11 
REMARK    5  A    between atoms: C_16  and  C_17 
REMARK    6  A    between atoms: C_17  and  C_18 
REMARK    7  A    between atoms: C_18  and  C_19 
REMARK    8  A    between atoms: C_19  and  O_21 
REMARK    9  A    between atoms: C_28  and  C_29 
REMARK   10  A    between atoms: C_29  and  C_30 
REMARK   11  A    between atoms: C_30  and  C_31 
REMARK   12  A    between atoms: C_31  and  O_33 
REMARK   13  A    between atoms: C_42  and  C_43 
REMARK   14  A    between atoms: C_43  and  C_44 
REMARK   15  A    between atoms: C_44  and  C_45 
REMARK   16  A    between atoms: C_45  and  O_47 
ROOT
HETATM    1  C   UNK     0      -0.765   5.346 -10.071  0.00  0.00     0.051 C 
HETATM    2  C   UNK     0      -0.982   4.019  -9.373  0.00  0.00    -0.031 A 
HETATM    3  C   UNK     0      -2.124   3.236  -9.307  0.00  0.00     0.021 A 
HETATM    4  N   UNK     0      -1.867   2.145  -8.547  0.00  0.00    -0.361 N 
HETATM    5  C   UNK     0      -0.584   2.212  -8.134  0.00  0.00     0.022 A 
HETATM    6  C   UNK     0      -0.002   3.373  -8.631  0.00  0.00    -0.027 A 
HETATM    7  C   UNK     0       0.217   1.217  -7.354  0.00  0.00     0.115 C 
HETATM    8  C   UNK     0       0.054  -0.243  -7.739  0.00  0.00     0.021 A 
HETATM    9  N   UNK     0      -0.136  -0.769  -8.959  0.00  0.00    -0.361 N 
HETATM   10  C   UNK     0      -0.321  -2.099  -8.817  0.00  0.00     0.022 A 
HETATM   11  C   UNK     0      -0.237  -2.439  -7.470  0.00  0.00    -0.027 A 
HETATM   12  C   UNK     0      -0.001  -1.275  -6.785  0.00  0.00    -0.031 A 
HETATM   13  C   UNK     0       0.168  -1.160  -5.287  0.00  0.00     0.051 C 
HETATM   14  C   UNK     0      -0.634  -3.090  -9.934  0.00  0.00     0.115 C 
HETATM   15  C   UNK     0      -1.933  -2.799 -10.668  0.00  0.00     0.021 A 
HETATM   16  N   UNK     0      -2.270  -1.676 -11.329  0.00  0.00    -0.361 N 
HETATM   17  C   UNK     0      -3.523  -1.788 -11.775  0.00  0.00     0.022 A 
HETATM   18  C   UNK     0      -4.024  -3.049 -11.394  0.00  0.00    -0.027 A 
HETATM   19  C   UNK     0      -3.018  -3.673 -10.703  0.00  0.00    -0.031 A 
HETATM   20  C   UNK     0      -3.127  -5.078 -10.141  0.00  0.00     0.051 C 
HETATM   21  C   UNK     0      -4.388  -0.786 -12.506  0.00  0.00     0.115 C 
HETATM   22  C   UNK     0      -4.205   0.674 -12.164  0.00  0.00     0.022 A 
HETATM   23  N   UNK     0      -4.010   1.226 -10.959  0.00  0.00    -0.361 N 
HETATM   24  C   UNK     0      -3.751   2.538 -11.132  0.00  0.00     0.021 A 
HETATM   25  C   UNK     0      -3.791   2.840 -12.480  0.00  0.00    -0.031 A 
HETATM   26  C   UNK     0      -3.607   4.180 -13.162  0.00  0.00     0.051 C 
HETATM   27  C   UNK     0      -4.080   1.663 -13.160  0.00  0.00    -0.027 A 
HETATM   28  C   UNK     0      -3.376   3.559 -10.071  0.00  0.00     0.115 C 
HETATM   29  H   UNK     0      -2.606   1.356  -8.274  0.00  0.00     0.165 HD
HETATM   30  H   UNK     0      -0.091  -0.213  -9.927  0.00  0.00     0.165 HD
HETATM   31  H   UNK     0      -1.593  -0.804 -11.527  0.00  0.00     0.165 HD
HETATM   32  H   UNK     0      -4.096   0.703  -9.971  0.00  0.00     0.165 HD
ENDROOT
BRANCH   6  33
HETATM   33  C   UNK     0       1.396   3.909  -8.454  0.00  0.00     0.051 C 
BRANCH  33  34
HETATM   34  C   UNK     0       2.398   3.041  -9.178  0.00  0.00     0.114 C 
BRANCH  34  35
HETATM   35  C   UNK     0       3.708   3.198  -8.485  0.00  0.00     0.139 C 
HETATM   36  O   UNK     0       4.783   2.887  -9.076  0.00  0.00    -0.650 OA
BRANCH  35  37
HETATM   37  O   UNK     0       3.816   3.683  -7.187  0.00  0.00    -0.776 OA
HETATM   38  H   UNK     0       4.173   4.604  -6.988  0.00  0.00     0.167 HD
ENDBRANCH  35  37
ENDBRANCH  34  35
ENDBRANCH  33  34
ENDBRANCH   6  33
BRANCH  27  39
HETATM   39  C   UNK     0      -4.276   1.606 -14.635  0.00  0.00     0.051 C 
BRANCH  39  40
HETATM   40  C   UNK     0      -3.091   1.532 -15.489  0.00  0.00     0.114 C 
BRANCH  40  41
HETATM   41  C   UNK     0      -1.934   0.741 -15.135  0.00  0.00     0.139 C 
HETATM   42  O   UNK     0      -1.954  -0.155 -14.280  0.00  0.00    -0.650 OA
BRANCH  41  43
HETATM   43  O   UNK     0      -0.697   0.992 -15.794  0.00  0.00    -0.776 OA
HETATM   44  H   UNK     0      -0.783   1.488 -16.673  0.00  0.00     0.167 HD
ENDBRANCH  41  43
ENDBRANCH  40  41
ENDBRANCH  39  40
ENDBRANCH  27  39
BRANCH  11  45
HETATM   45  C   UNK     0      -0.368  -3.796  -6.832  0.00  0.00     0.051 C 
BRANCH  45  46
HETATM   46  C   UNK     0       0.930  -4.438  -6.500  0.00  0.00     0.114 C 
BRANCH  46  47
HETATM   47  C   UNK     0       0.853  -4.879  -5.078  0.00  0.00     0.139 C 
HETATM   48  O   UNK     0       1.850  -5.411  -4.568  0.00  0.00    -0.650 OA
BRANCH  47  49
HETATM   49  O   UNK     0      -0.295  -4.703  -4.348  0.00  0.00    -0.776 OA
HETATM   50  H   UNK     0      -0.953  -5.472  -4.173  0.00  0.00     0.167 HD
ENDBRANCH  47  49
ENDBRANCH  46  47
ENDBRANCH  45  46
ENDBRANCH  11  45
BRANCH  18  51
HETATM   51  C   UNK     0      -5.380  -3.635 -11.691  0.00  0.00     0.051 C 
BRANCH  51  52
HETATM   52  C   UNK     0      -6.329  -3.065 -10.647  0.00  0.00     0.114 C 
BRANCH  52  53
HETATM   53  C   UNK     0      -6.950  -4.126  -9.831  0.00  0.00     0.139 C 
HETATM   54  O   UNK     0      -7.799  -3.834  -8.974  0.00  0.00    -0.650 OA
BRANCH  53  55
HETATM   55  O   UNK     0      -6.579  -5.435 -10.023  0.00  0.00    -0.776 OA
HETATM   56  H   UNK     0      -7.182  -6.180 -10.283  0.00  0.00     0.167 HD
ENDBRANCH  53  55
ENDBRANCH  52  53
ENDBRANCH  51  52
ENDBRANCH  18  51
TORSDOF 16
ENDMDL
MODEL 13
REMARK VINA RESULT:      -9.3     31.899     34.323
REMARK  16 active torsions:
REMARK  status: ('A' for Active; 'I' for Inactive)
REMARK    1  A    between atoms: C_6  and  C_7 
REMARK    2  A    between atoms: C_7  and  C_8 
REMARK    3  A    between atoms: C_8  and  C_9 
REMARK    4  A    between atoms: C_9  and  O_11 
REMARK    5  A    between atoms: C_16  and  C_17 
REMARK    6  A    between atoms: C_17  and  C_18 
REMARK    7  A    between atoms: C_18  and  C_19 
REMARK    8  A    between atoms: C_19  and  O_21 
REMARK    9  A    between atoms: C_28  and  C_29 
REMARK   10  A    between atoms: C_29  and  C_30 
REMARK   11  A    between atoms: C_30  and  C_31 
REMARK   12  A    between atoms: C_31  and  O_33 
REMARK   13  A    between atoms: C_42  and  C_43 
REMARK   14  A    between atoms: C_43  and  C_44 
REMARK   15  A    between atoms: C_44  and  C_45 
REMARK   16  A    between atoms: C_45  and  O_47 
ROOT
HETATM    1  C   UNK     0     -25.060  15.862   9.574  0.00  0.00     0.051 C 
HETATM    2  C   UNK     0     -25.765  16.541   8.417  0.00  0.00    -0.031 A 
HETATM    3  C   UNK     0     -25.853  16.152   7.090  0.00  0.00     0.021 A 
HETATM    4  N   UNK     0     -26.557  17.082   6.403  0.00  0.00    -0.361 N 
HETATM    5  C   UNK     0     -26.928  18.051   7.265  0.00  0.00     0.022 A 
HETATM    6  C   UNK     0     -26.446  17.746   8.534  0.00  0.00    -0.027 A 
HETATM    7  C   UNK     0     -27.794  19.250   7.035  0.00  0.00     0.115 C 
HETATM    8  C   UNK     0     -29.043  19.038   6.198  0.00  0.00     0.021 A 
HETATM    9  N   UNK     0     -29.847  17.964   6.153  0.00  0.00    -0.361 N 
HETATM   10  C   UNK     0     -30.780  18.179   5.202  0.00  0.00     0.022 A 
HETATM   11  C   UNK     0     -30.578  19.429   4.625  0.00  0.00    -0.027 A 
HETATM   12  C   UNK     0     -29.486  19.976   5.248  0.00  0.00    -0.031 A 
HETATM   13  C   UNK     0     -28.898  21.336   4.948  0.00  0.00     0.051 C 
HETATM   14  C   UNK     0     -31.863  17.196   4.764  0.00  0.00     0.115 C 
HETATM   15  C   UNK     0     -31.320  15.893   4.201  0.00  0.00     0.021 A 
HETATM   16  N   UNK     0     -30.515  15.005   4.814  0.00  0.00    -0.361 N 
HETATM   17  C   UNK     0     -30.208  14.028   3.958  0.00  0.00     0.022 A 
HETATM   18  C   UNK     0     -30.851  14.286   2.731  0.00  0.00    -0.027 A 
HETATM   19  C   UNK     0     -31.546  15.456   2.897  0.00  0.00    -0.031 A 
HETATM   20  C   UNK     0     -32.415  16.081   1.820  0.00  0.00     0.051 C 
HETATM   21  C   UNK     0     -29.288  12.840   4.129  0.00  0.00     0.115 C 
HETATM   22  C   UNK     0     -28.064  13.025   4.995  0.00  0.00     0.022 A 
HETATM   23  N   UNK     0     -27.248  14.084   5.064  0.00  0.00    -0.361 N 
HETATM   24  C   UNK     0     -26.374  13.881   6.070  0.00  0.00     0.021 A 
HETATM   25  C   UNK     0     -26.627  12.657   6.657  0.00  0.00    -0.031 A 
HETATM   26  C   UNK     0     -25.893  11.974   7.792  0.00  0.00     0.051 C 
HETATM   27  C   UNK     0     -27.704  12.089   5.986  0.00  0.00    -0.027 A 
HETATM   28  C   UNK     0     -25.317  14.840   6.591  0.00  0.00     0.115 C 
HETATM   29  H   UNK     0     -26.754  17.067   5.306  0.00  0.00     0.165 HD
HETATM   30  H   UNK     0     -29.788  17.073   6.826  0.00  0.00     0.165 HD
HETATM   31  H   UNK     0     -30.195  15.043   5.887  0.00  0.00     0.165 HD
HETATM   32  H   UNK     0     -27.253  14.968   4.373  0.00  0.00     0.165 HD
ENDROOT
BRANCH   6  33
HETATM   33  C   UNK     0     -26.580  18.503   9.831  0.00  0.00     0.051 C 
BRANCH  33  34
HETATM   34  C   UNK     0     -27.980  18.376  10.382  0.00  0.00     0.114 C 
BRANCH  34  35
HETATM   35  C   UNK     0     -27.947  17.332  11.446  0.00  0.00     0.139 C 
HETATM   36  O   UNK     0     -26.892  17.139  12.118  0.00  0.00    -0.650 OA
BRANCH  35  37
HETATM   37  O   UNK     0     -29.047  16.538  11.751  0.00  0.00    -0.776 OA
HETATM   38  H   UNK     0     -28.947  15.600  12.102  0.00  0.00     0.167 HD
ENDBRANCH  35  37
ENDBRANCH  34  35
ENDBRANCH  33  34
ENDBRANCH   6  33
BRANCH  27  39
HETATM   39  C   UNK     0     -28.225  10.729   6.292  0.00  0.00     0.051 C 
BRANCH  39  40
HETATM   40  C   UNK     0     -29.205  10.587   7.368  0.00  0.00     0.114 C 
BRANCH  40  41
HETATM   41  C   UNK     0     -28.926   9.835   8.571  0.00  0.00     0.139 C 
HETATM   42  O   UNK     0     -29.266  10.205   9.703  0.00  0.00    -0.650 OA
BRANCH  41  43
HETATM   43  O   UNK     0     -28.224   8.601   8.467  0.00  0.00    -0.776 OA
HETATM   44  H   UNK     0     -28.572   7.868   9.074  0.00  0.00     0.167 HD
ENDBRANCH  41  43
ENDBRANCH  40  41
ENDBRANCH  39  40
ENDBRANCH  27  39
BRANCH  11  45
HETATM   45  C   UNK     0     -31.368  20.102   3.535  0.00  0.00     0.051 C 
BRANCH  45  46
HETATM   46  C   UNK     0     -31.359  19.373   2.241  0.00  0.00     0.114 C 
BRANCH  46  47
HETATM   47  C   UNK     0     -29.941  19.297   1.788  0.00  0.00     0.139 C 
HETATM   48  O   UNK     0     -29.359  20.347   1.482  0.00  0.00    -0.650 OA
BRANCH  47  49
HETATM   49  O   UNK     0     -29.292  18.090   1.709  0.00  0.00    -0.776 OA
HETATM   50  H   UNK     0     -29.306  17.413   2.481  0.00  0.00     0.167 HD
ENDBRANCH  47  49
ENDBRANCH  46  47
ENDBRANCH  45  46
ENDBRANCH  11  45
BRANCH  18  51
HETATM   51  C   UNK     0     -30.823  13.452   1.477  0.00  0.00     0.051 C 
BRANCH  51  52
HETATM   52  C   UNK     0     -32.109  12.639   1.477  0.00  0.00     0.114 C 
BRANCH  52  53
HETATM   53  C   UNK     0     -31.951  11.361   2.198  0.00  0.00     0.139 C 
HETATM   54  O   UNK     0     -31.607  10.339   1.583  0.00  0.00    -0.650 OA
BRANCH  53  55
HETATM   55  O   UNK     0     -32.190  11.310   3.550  0.00  0.00    -0.776 OA
HETATM   56  H   UNK     0     -33.059  11.485   3.996  0.00  0.00     0.167 HD
ENDBRANCH  53  55
ENDBRANCH  52  53
ENDBRANCH  51  52
ENDBRANCH  18  51
TORSDOF 16
ENDMDL
MODEL 14
REMARK VINA RESULT:      -9.3      3.090      9.748
REMARK  16 active torsions:
REMARK  status: ('A' for Active; 'I' for Inactive)
REMARK    1  A    between atoms: C_6  and  C_7 
REMARK    2  A    between atoms: C_7  and  C_8 
REMARK    3  A    between atoms: C_8  and  C_9 
REMARK    4  A    between atoms: C_9  and  O_11 
REMARK    5  A    between atoms: C_16  and  C_17 
REMARK    6  A    between atoms: C_17  and  C_18 
REMARK    7  A    between atoms: C_18  and  C_19 
REMARK    8  A    between atoms: C_19  and  O_21 
REMARK    9  A    between atoms: C_28  and  C_29 
REMARK   10  A    between atoms: C_29  and  C_30 
REMARK   11  A    between atoms: C_30  and  C_31 
REMARK   12  A    between atoms: C_31  and  O_33 
REMARK   13  A    between atoms: C_42  and  C_43 
REMARK   14  A    between atoms: C_43  and  C_44 
REMARK   15  A    between atoms: C_44  and  C_45 
REMARK   16  A    between atoms: C_45  and  O_47 
ROOT
HETATM    1  C   UNK     0      -4.943  -3.109 -12.417  0.00  0.00     0.051 C 
HETATM    2  C   UNK     0      -3.619  -2.708 -11.800  0.00  0.00    -0.031 A 
HETATM    3  C   UNK     0      -2.651  -1.841 -12.282  0.00  0.00     0.021 A 
HETATM    4  N   UNK     0      -1.615  -1.809 -11.410  0.00  0.00    -0.361 N 
HETATM    5  C   UNK     0      -1.906  -2.629 -10.379  0.00  0.00     0.022 A 
HETATM    6  C   UNK     0      -3.151  -3.210 -10.592  0.00  0.00    -0.027 A 
HETATM    7  C   UNK     0      -1.142  -2.878  -9.116  0.00  0.00     0.115 C 
HETATM    8  C   UNK     0      -0.543  -1.662  -8.431  0.00  0.00     0.021 A 
HETATM    9  N   UNK     0      -1.044  -0.420  -8.343  0.00  0.00    -0.361 N 
HETATM   10  C   UNK     0      -0.130   0.358  -7.725  0.00  0.00     0.022 A 
HETATM   11  C   UNK     0       0.986  -0.407  -7.397  0.00  0.00    -0.027 A 
HETATM   12  C   UNK     0       0.732  -1.680  -7.839  0.00  0.00    -0.031 A 
HETATM   13  C   UNK     0       1.669  -2.858  -7.694  0.00  0.00     0.051 C 
HETATM   14  C   UNK     0      -0.249   1.857  -7.467  0.00  0.00     0.115 C 
HETATM   15  C   UNK     0      -0.378   2.691  -8.731  0.00  0.00     0.021 A 
HETATM   16  N   UNK     0      -1.326   2.600  -9.682  0.00  0.00    -0.361 N 
HETATM   17  C   UNK     0      -1.046   3.459 -10.664  0.00  0.00     0.022 A 
HETATM   18  C   UNK     0       0.136   4.150 -10.333  0.00  0.00    -0.027 A 
HETATM   19  C   UNK     0       0.544   3.661  -9.119  0.00  0.00    -0.031 A 
HETATM   20  C   UNK     0       1.768   4.163  -8.375  0.00  0.00     0.051 C 
HETATM   21  C   UNK     0      -1.751   3.694 -11.981  0.00  0.00     0.115 C 
HETATM   22  C   UNK     0      -2.390   2.501 -12.652  0.00  0.00     0.022 A 
HETATM   23  N   UNK     0      -1.917   1.252 -12.751  0.00  0.00    -0.361 N 
HETATM   24  C   UNK     0      -2.875   0.478 -13.300  0.00  0.00     0.021 A 
HETATM   25  C   UNK     0      -3.989   1.249 -13.571  0.00  0.00    -0.031 A 
HETATM   26  C   UNK     0      -5.295   0.842 -14.220  0.00  0.00     0.051 C 
HETATM   27  C   UNK     0      -3.703   2.548 -13.165  0.00  0.00    -0.027 A 
HETATM   28  C   UNK     0      -2.839  -1.024 -13.528  0.00  0.00     0.115 C 
HETATM   29  H   UNK     0      -0.668  -1.237 -11.549  0.00  0.00     0.165 HD
HETATM   30  H   UNK     0      -2.063  -0.100  -8.672  0.00  0.00     0.165 HD
HETATM   31  H   UNK     0      -2.239   1.950  -9.638  0.00  0.00     0.165 HD
HETATM   32  H   UNK     0      -0.884   0.913 -12.474  0.00  0.00     0.165 HD
ENDROOT
BRANCH   6  33
HETATM   33  C   UNK     0      -3.920  -4.195  -9.748  0.00  0.00     0.051 C 
BRANCH  33  34
HETATM   34  C   UNK     0      -3.540  -5.613 -10.101  0.00  0.00     0.114 C 
BRANCH  34  35
HETATM   35  C   UNK     0      -2.957  -6.237  -8.879  0.00  0.00     0.139 C 
HETATM   36  O   UNK     0      -3.705  -6.834  -8.050  0.00  0.00    -0.650 OA
BRANCH  35  37
HETATM   37  O   UNK     0      -1.598  -6.199  -8.593  0.00  0.00    -0.776 OA
HETATM   38  H   UNK     0      -0.942  -6.827  -9.028  0.00  0.00     0.167 HD
ENDBRANCH  35  37
ENDBRANCH  34  35
ENDBRANCH  33  34
ENDBRANCH   6  33
BRANCH  27  39
HETATM   39  C   UNK     0      -4.643   3.684 -13.362  0.00  0.00     0.051 C 
BRANCH  39  40
HETATM   40  C   UNK     0      -4.799   4.652 -12.277  0.00  0.00     0.114 C 
BRANCH  40  41
HETATM   41  C   UNK     0      -4.513   6.059 -12.452  0.00  0.00     0.139 C 
HETATM   42  O   UNK     0      -3.772   6.704 -11.699  0.00  0.00    -0.650 OA
BRANCH  41  43
HETATM   43  O   UNK     0      -5.106   6.754 -13.544  0.00  0.00    -0.776 OA
HETATM   44  H   UNK     0      -4.482   6.921 -14.324  0.00  0.00     0.167 HD
ENDBRANCH  41  43
ENDBRANCH  40  41
ENDBRANCH  39  40
ENDBRANCH  27  39
BRANCH  11  45
HETATM   45  C   UNK     0       2.247   0.021  -6.695  0.00  0.00     0.051 C 
BRANCH  45  46
HETATM   46  C   UNK     0       3.181   0.800  -7.548  0.00  0.00     0.114 C 
BRANCH  46  47
HETATM   47  C   UNK     0       4.122   1.512  -6.637  0.00  0.00     0.139 C 
HETATM   48  O   UNK     0       4.615   0.885  -5.688  0.00  0.00    -0.650 OA
BRANCH  47  49
HETATM   49  O   UNK     0       4.436   2.831  -6.842  0.00  0.00    -0.776 OA
HETATM   50  H   UNK     0       4.221   3.312  -7.723  0.00  0.00     0.167 HD
ENDBRANCH  47  49
ENDBRANCH  46  47
ENDBRANCH  45  46
ENDBRANCH  11  45
BRANCH  18  51
HETATM   51  C   UNK     0       0.828   5.233 -11.120  0.00  0.00     0.051 C 
BRANCH  51  52
HETATM   52  C   UNK     0       1.465   4.548 -12.319  0.00  0.00     0.114 C 
BRANCH  52  53
HETATM   53  C   UNK     0       2.489   3.567 -11.911  0.00  0.00     0.139 C 
HETATM   54  O   UNK     0       3.461   3.931 -11.229  0.00  0.00    -0.650 OA
BRANCH  53  55
HETATM   55  O   UNK     0       2.364   2.254 -12.294  0.00  0.00    -0.776 OA
HETATM   56  H   UNK     0       2.446   1.905 -13.220  0.00  0.00     0.167 HD
ENDBRANCH  53  55
ENDBRANCH  52  53
ENDBRANCH  51  52
ENDBRANCH  18  51
TORSDOF 16
ENDMDL
MODEL 15
REMARK VINA RESULT:      -9.2     29.724     33.675
REMARK  16 active torsions:
REMARK  status: ('A' for Active; 'I' for Inactive)
REMARK    1  A    between atoms: C_6  and  C_7 
REMARK    2  A    between atoms: C_7  and  C_8 
REMARK    3  A    between atoms: C_8  and  C_9 
REMARK    4  A    between atoms: C_9  and  O_11 
REMARK    5  A    between atoms: C_16  and  C_17 
REMARK    6  A    between atoms: C_17  and  C_18 
REMARK    7  A    between atoms: C_18  and  C_19 
REMARK    8  A    between atoms: C_19  and  O_21 
REMARK    9  A    between atoms: C_28  and  C_29 
REMARK   10  A    between atoms: C_29  and  C_30 
REMARK   11  A    between atoms: C_30  and  C_31 
REMARK   12  A    between atoms: C_31  and  O_33 
REMARK   13  A    between atoms: C_42  and  C_43 
REMARK   14  A    between atoms: C_43  and  C_44 
REMARK   15  A    between atoms: C_44  and  C_45 
REMARK   16  A    between atoms: C_45  and  O_47 
ROOT
HETATM    1  C   UNK     0     -19.426  15.472  11.999  0.00  0.00     0.051 C 
HETATM    2  C   UNK     0     -20.795  15.025  11.527  0.00  0.00    -0.031 A 
HETATM    3  C   UNK     0     -22.027  15.636  11.699  0.00  0.00     0.021 A 
HETATM    4  N   UNK     0     -22.985  14.863  11.135  0.00  0.00    -0.361 N 
HETATM    5  C   UNK     0     -22.389  13.777  10.599  0.00  0.00     0.022 A 
HETATM    6  C   UNK     0     -21.019  13.846  10.829  0.00  0.00    -0.027 A 
HETATM    7  C   UNK     0     -22.982  12.669   9.786  0.00  0.00     0.115 C 
HETATM    8  C   UNK     0     -23.990  13.068   8.723  0.00  0.00     0.021 A 
HETATM    9  N   UNK     0     -24.000  14.165   7.950  0.00  0.00    -0.361 N 
HETATM   10  C   UNK     0     -25.133  14.150   7.216  0.00  0.00     0.022 A 
HETATM   11  C   UNK     0     -25.869  13.008   7.518  0.00  0.00    -0.027 A 
HETATM   12  C   UNK     0     -25.154  12.322   8.467  0.00  0.00    -0.031 A 
HETATM   13  C   UNK     0     -25.569  11.009   9.093  0.00  0.00     0.051 C 
HETATM   14  C   UNK     0     -25.592  15.233   6.244  0.00  0.00     0.115 C 
HETATM   15  C   UNK     0     -25.808  16.591   6.893  0.00  0.00     0.021 A 
HETATM   16  N   UNK     0     -24.910  17.331   7.570  0.00  0.00    -0.361 N 
HETATM   17  C   UNK     0     -25.510  18.425   8.042  0.00  0.00     0.022 A 
HETATM   18  C   UNK     0     -26.862  18.403   7.646  0.00  0.00    -0.027 A 
HETATM   19  C   UNK     0     -27.036  17.250   6.926  0.00  0.00    -0.031 A 
HETATM   20  C   UNK     0     -28.349  16.849   6.277  0.00  0.00     0.051 C 
HETATM   21  C   UNK     0     -24.966  19.530   8.919  0.00  0.00     0.115 C 
HETATM   22  C   UNK     0     -23.930  19.155   9.952  0.00  0.00     0.022 A 
HETATM   23  N   UNK     0     -23.892  18.068  10.733  0.00  0.00    -0.361 N 
HETATM   24  C   UNK     0     -22.719  18.064  11.397  0.00  0.00     0.021 A 
HETATM   25  C   UNK     0     -21.988  19.181  11.043  0.00  0.00    -0.031 A 
HETATM   26  C   UNK     0     -20.634  19.634  11.549  0.00  0.00     0.051 C 
HETATM   27  C   UNK     0     -22.742  19.895  10.119  0.00  0.00    -0.027 A 
HETATM   28  C   UNK     0     -22.182  16.991  12.329  0.00  0.00     0.115 C 
HETATM   29  H   UNK     0     -24.080  15.070  11.153  0.00  0.00     0.165 HD
HETATM   30  H   UNK     0     -23.185  14.926   7.883  0.00  0.00     0.165 HD
HETATM   31  H   UNK     0     -23.818  17.100   7.677  0.00  0.00     0.165 HD
HETATM   32  H   UNK     0     -24.713  17.314  10.856  0.00  0.00     0.165 HD
ENDROOT
BRANCH   6  33
HETATM   33  C   UNK     0     -19.921  12.887  10.443  0.00  0.00     0.051 C 
BRANCH  33  34
HETATM   34  C   UNK     0     -19.483  12.068  11.634  0.00  0.00     0.114 C 
BRANCH  34  35
HETATM   35  C   UNK     0     -20.400  10.896  11.733  0.00  0.00     0.139 C 
HETATM   36  O   UNK     0     -21.342  10.893  12.578  0.00  0.00    -0.650 OA
BRANCH  35  37
HETATM   37  O   UNK     0     -20.274   9.776  10.920  0.00  0.00    -0.776 OA
HETATM   38  H   UNK     0     -19.714   9.783  10.083  0.00  0.00     0.167 HD
ENDBRANCH  35  37
ENDBRANCH  34  35
ENDBRANCH  33  34
ENDBRANCH   6  33
BRANCH  27  39
HETATM   39  C   UNK     0     -22.309  21.204   9.557  0.00  0.00     0.051 C 
BRANCH  39  40
HETATM   40  C   UNK     0     -22.748  22.427  10.229  0.00  0.00     0.114 C 
BRANCH  40  41
HETATM   41  C   UNK     0     -22.103  22.924  11.423  0.00  0.00     0.139 C 
HETATM   42  O   UNK     0     -21.125  23.684  11.405  0.00  0.00    -0.650 OA
BRANCH  41  43
HETATM   43  O   UNK     0     -22.605  22.531  12.696  0.00  0.00    -0.776 OA
HETATM   44  H   UNK     0     -22.106  21.760  13.123  0.00  0.00     0.167 HD
ENDBRANCH  41  43
ENDBRANCH  40  41
ENDBRANCH  39  40
ENDBRANCH  27  39
BRANCH  11  45
HETATM   45  C   UNK     0     -27.188  12.559   6.949  0.00  0.00     0.051 C 
BRANCH  45  46
HETATM   46  C   UNK     0     -27.066  11.653   5.778  0.00  0.00     0.114 C 
BRANCH  46  47
HETATM   47  C   UNK     0     -27.762  10.382   6.129  0.00  0.00     0.139 C 
HETATM   48  O   UNK     0     -28.950  10.434   6.478  0.00  0.00    -0.650 OA
BRANCH  47  49
HETATM   49  O   UNK     0     -27.103   9.180   6.068  0.00  0.00    -0.776 OA
HETATM   50  H   UNK     0     -27.055   8.544   6.873  0.00  0.00     0.167 HD
ENDBRANCH  47  49
ENDBRANCH  46  47
ENDBRANCH  45  46
ENDBRANCH  11  45
BRANCH  18  51
HETATM   51  C   UNK     0     -27.926  19.434   7.921  0.00  0.00     0.051 C 
BRANCH  51  52
HETATM   52  C   UNK     0     -28.602  19.014   9.217  0.00  0.00     0.114 C 
BRANCH  52  53
HETATM   53  C   UNK     0     -28.343  19.974  10.308  0.00  0.00     0.139 C 
HETATM   54  O   UNK     0     -28.923  21.072  10.320  0.00  0.00    -0.650 OA
BRANCH  53  55
HETATM   55  O   UNK     0     -27.457  19.647  11.305  0.00  0.00    -0.776 OA
HETATM   56  H   UNK     0     -26.989  18.778  11.408  0.00  0.00     0.167 HD
ENDBRANCH  53  55
ENDBRANCH  52  53
ENDBRANCH  51  52
ENDBRANCH  18  51
TORSDOF 16
ENDMDL
MODEL 16
REMARK VINA RESULT:      -9.0     30.137     33.286
REMARK  16 active torsions:
REMARK  status: ('A' for Active; 'I' for Inactive)
REMARK    1  A    between atoms: C_6  and  C_7 
REMARK    2  A    between atoms: C_7  and  C_8 
REMARK    3  A    between atoms: C_8  and  C_9 
REMARK    4  A    between atoms: C_9  and  O_11 
REMARK    5  A    between atoms: C_16  and  C_17 
REMARK    6  A    between atoms: C_17  and  C_18 
REMARK    7  A    between atoms: C_18  and  C_19 
REMARK    8  A    between atoms: C_19  and  O_21 
REMARK    9  A    between atoms: C_28  and  C_29 
REMARK   10  A    between atoms: C_29  and  C_30 
REMARK   11  A    between atoms: C_30  and  C_31 
REMARK   12  A    between atoms: C_31  and  O_33 
REMARK   13  A    between atoms: C_42  and  C_43 
REMARK   14  A    between atoms: C_43  and  C_44 
REMARK   15  A    between atoms: C_44  and  C_45 
REMARK   16  A    between atoms: C_45  and  O_47 
ROOT
HETATM    1  C   UNK     0     -26.939  21.155   7.495  0.00  0.00     0.051 C 
HETATM    2  C   UNK     0     -26.002  20.311   8.335  0.00  0.00    -0.031 A 
HETATM    3  C   UNK     0     -26.271  19.168   9.072  0.00  0.00     0.021 A 
HETATM    4  N   UNK     0     -25.136  18.766   9.691  0.00  0.00    -0.361 N 
HETATM    5  C   UNK     0     -24.148  19.622   9.358  0.00  0.00     0.022 A 
HETATM    6  C   UNK     0     -24.656  20.602   8.512  0.00  0.00    -0.027 A 
HETATM    7  C   UNK     0     -22.691  19.572   9.697  0.00  0.00     0.115 C 
HETATM    8  C   UNK     0     -22.016  18.215   9.608  0.00  0.00     0.021 A 
HETATM    9  N   UNK     0     -22.244  17.223   8.733  0.00  0.00    -0.361 N 
HETATM   10  C   UNK     0     -21.480  16.168   9.087  0.00  0.00     0.022 A 
HETATM   11  C   UNK     0     -20.732  16.492  10.215  0.00  0.00    -0.027 A 
HETATM   12  C   UNK     0     -21.065  17.781  10.549  0.00  0.00    -0.031 A 
HETATM   13  C   UNK     0     -20.492  18.558  11.713  0.00  0.00     0.051 C 
HETATM   14  C   UNK     0     -21.464  14.800   8.411  0.00  0.00     0.115 C 
HETATM   15  C   UNK     0     -22.802  14.081   8.445  0.00  0.00     0.021 A 
HETATM   16  N   UNK     0     -23.978  14.508   7.949  0.00  0.00    -0.361 N 
HETATM   17  C   UNK     0     -24.928  13.619   8.243  0.00  0.00     0.022 A 
HETATM   18  C   UNK     0     -24.342  12.555   8.958  0.00  0.00    -0.027 A 
HETATM   19  C   UNK     0     -23.010  12.856   9.077  0.00  0.00    -0.031 A 
HETATM   20  C   UNK     0     -21.997  11.950   9.753  0.00  0.00     0.051 C 
HETATM   21  C   UNK     0     -26.416  13.662   7.978  0.00  0.00     0.115 C 
HETATM   22  C   UNK     0     -27.093  15.012   8.020  0.00  0.00     0.022 A 
HETATM   23  N   UNK     0     -26.883  16.020   8.877  0.00  0.00    -0.361 N 
HETATM   24  C   UNK     0     -27.596  17.086   8.460  0.00  0.00     0.021 A 
HETATM   25  C   UNK     0     -28.289  16.753   7.312  0.00  0.00    -0.031 A 
HETATM   26  C   UNK     0     -29.250  17.598   6.501  0.00  0.00     0.051 C 
HETATM   27  C   UNK     0     -27.984  15.431   7.011  0.00  0.00    -0.027 A 
HETATM   28  C   UNK     0     -27.609  18.484   9.053  0.00  0.00     0.115 C 
HETATM   29  H   UNK     0     -25.050  17.903  10.392  0.00  0.00     0.165 HD
HETATM   30  H   UNK     0     -22.906  17.282   7.835  0.00  0.00     0.165 HD
HETATM   31  H   UNK     0     -24.133  15.434   7.336  0.00  0.00     0.165 HD
HETATM   32  H   UNK     0     -26.263  15.974   9.810  0.00  0.00     0.165 HD
ENDROOT
BRANCH   6  33
HETATM   33  C   UNK     0     -23.969  21.781   7.871  0.00  0.00     0.051 C 
BRANCH  33  34
HETATM   34  C   UNK     0     -23.748  22.885   8.877  0.00  0.00     0.114 C 
BRANCH  34  35
HETATM   35  C   UNK     0     -22.413  23.485   8.596  0.00  0.00     0.139 C 
HETATM   36  O   UNK     0     -21.360  22.928   9.025  0.00  0.00    -0.650 OA
BRANCH  35  37
HETATM   37  O   UNK     0     -22.257  24.656   7.864  0.00  0.00    -0.776 OA
HETATM   38  H   UNK     0     -22.451  25.563   8.258  0.00  0.00     0.167 HD
ENDBRANCH  35  37
ENDBRANCH  34  35
ENDBRANCH  33  34
ENDBRANCH   6  33
BRANCH  27  39
HETATM   39  C   UNK     0     -28.602  14.695   5.875  0.00  0.00     0.051 C 
BRANCH  39  40
HETATM   40  C   UNK     0     -29.713  13.787   6.159  0.00  0.00     0.114 C 
BRANCH  40  41
HETATM   41  C   UNK     0     -29.504  12.448   6.664  0.00  0.00     0.139 C 
HETATM   42  O   UNK     0     -29.596  12.147   7.862  0.00  0.00    -0.650 OA
BRANCH  41  43
HETATM   43  O   UNK     0     -29.175  11.408   5.749  0.00  0.00    -0.776 OA
HETATM   44  H   UNK     0     -29.930  10.759   5.563  0.00  0.00     0.167 HD
ENDBRANCH  41  43
ENDBRANCH  40  41
ENDBRANCH  39  40
ENDBRANCH  27  39
BRANCH  11  45
HETATM   45  C   UNK     0     -19.739  15.644  10.963  0.00  0.00     0.051 C 
BRANCH  45  46
HETATM   46  C   UNK     0     -20.332  14.847  12.067  0.00  0.00     0.114 C 
BRANCH  46  47
HETATM   47  C   UNK     0     -19.677  13.508  12.047  0.00  0.00     0.139 C 
HETATM   48  O   UNK     0     -18.816  13.283  11.185  0.00  0.00    -0.650 OA
BRANCH  47  49
HETATM   49  O   UNK     0     -20.020  12.544  12.961  0.00  0.00    -0.776 OA
HETATM   50  H   UNK     0     -20.761  11.857  12.777  0.00  0.00     0.167 HD
ENDBRANCH  47  49
ENDBRANCH  46  47
ENDBRANCH  45  46
ENDBRANCH  11  45
BRANCH  18  51
HETATM   51  C   UNK     0     -25.011  11.311   9.481  0.00  0.00     0.051 C 
BRANCH  51  52
HETATM   52  C   UNK     0     -25.223  10.404   8.278  0.00  0.00     0.114 C 
BRANCH  52  53
HETATM   53  C   UNK     0     -26.622   9.945   8.175  0.00  0.00     0.139 C 
HETATM   54  O   UNK     0     -27.121   9.717   7.062  0.00  0.00    -0.650 OA
BRANCH  53  55
HETATM   55  O   UNK     0     -27.368   9.777   9.317  0.00  0.00    -0.776 OA
HETATM   56  H   UNK     0     -28.023  10.424   9.687  0.00  0.00     0.167 HD
ENDBRANCH  53  55
ENDBRANCH  52  53
ENDBRANCH  51  52
ENDBRANCH  18  51
TORSDOF 16
ENDMDL
MODEL 17
REMARK VINA RESULT:      -8.8     29.284     32.811
REMARK  16 active torsions:
REMARK  status: ('A' for Active; 'I' for Inactive)
REMARK    1  A    between atoms: C_6  and  C_7 
REMARK    2  A    between atoms: C_7  and  C_8 
REMARK    3  A    between atoms: C_8  and  C_9 
REMARK    4  A    between atoms: C_9  and  O_11 
REMARK    5  A    between atoms: C_16  and  C_17 
REMARK    6  A    between atoms: C_17  and  C_18 
REMARK    7  A    between atoms: C_18  and  C_19 
REMARK    8  A    between atoms: C_19  and  O_21 
REMARK    9  A    between atoms: C_28  and  C_29 
REMARK   10  A    between atoms: C_29  and  C_30 
REMARK   11  A    between atoms: C_30  and  C_31 
REMARK   12  A    between atoms: C_31  and  O_33 
REMARK   13  A    between atoms: C_42  and  C_43 
REMARK   14  A    between atoms: C_43  and  C_44 
REMARK   15  A    between atoms: C_44  and  C_45 
REMARK   16  A    between atoms: C_45  and  O_47 
ROOT
HETATM    1  C   UNK     0     -28.709  17.500   7.378  0.00  0.00     0.051 C 
HETATM    2  C   UNK     0     -27.985  16.211   7.045  0.00  0.00    -0.031 A 
HETATM    3  C   UNK     0     -26.624  15.947   7.020  0.00  0.00     0.021 A 
HETATM    4  N   UNK     0     -26.431  14.663   6.636  0.00  0.00    -0.361 N 
HETATM    5  C   UNK     0     -27.638  14.100   6.424  0.00  0.00     0.022 A 
HETATM    6  C   UNK     0     -28.633  15.042   6.668  0.00  0.00    -0.027 A 
HETATM    7  C   UNK     0     -27.982  12.685   6.079  0.00  0.00     0.115 C 
HETATM    8  C   UNK     0     -27.220  11.599   6.818  0.00  0.00     0.021 A 
HETATM    9  N   UNK     0     -26.794  11.596   8.091  0.00  0.00    -0.361 N 
HETATM   10  C   UNK     0     -26.082  10.466   8.292  0.00  0.00     0.022 A 
HETATM   11  C   UNK     0     -26.057   9.717   7.119  0.00  0.00    -0.027 A 
HETATM   12  C   UNK     0     -26.772  10.425   6.187  0.00  0.00    -0.031 A 
HETATM   13  C   UNK     0     -27.018   9.991   4.759  0.00  0.00     0.051 C 
HETATM   14  C   UNK     0     -25.355  10.075   9.575  0.00  0.00     0.115 C 
HETATM   15  C   UNK     0     -24.270  11.055   9.992  0.00  0.00     0.021 A 
HETATM   16  N   UNK     0     -24.408  12.367  10.260  0.00  0.00    -0.361 N 
HETATM   17  C   UNK     0     -23.207  12.889  10.520  0.00  0.00     0.022 A 
HETATM   18  C   UNK     0     -22.242  11.866  10.427  0.00  0.00    -0.027 A 
HETATM   19  C   UNK     0     -22.921  10.722  10.096  0.00  0.00    -0.031 A 
HETATM   20  C   UNK     0     -22.260   9.366   9.930  0.00  0.00     0.051 C 
HETATM   21  C   UNK     0     -22.811  14.320  10.807  0.00  0.00     0.115 C 
HETATM   22  C   UNK     0     -23.589  15.412  10.112  0.00  0.00     0.022 A 
HETATM   23  N   UNK     0     -24.030  15.440   8.847  0.00  0.00    -0.361 N 
HETATM   24  C   UNK     0     -24.801  16.535   8.692  0.00  0.00     0.021 A 
HETATM   25  C   UNK     0     -24.850  17.234   9.883  0.00  0.00    -0.031 A 
HETATM   26  C   UNK     0     -25.550  18.541  10.193  0.00  0.00     0.051 C 
HETATM   27  C   UNK     0     -24.081  16.535  10.807  0.00  0.00    -0.027 A 
HETATM   28  C   UNK     0     -25.595  16.947   7.464  0.00  0.00     0.115 C 
HETATM   29  H   UNK     0     -25.441  14.175   6.479  0.00  0.00     0.165 HD
HETATM   30  H   UNK     0     -27.036  12.365   8.865  0.00  0.00     0.165 HD
HETATM   31  H   UNK     0     -25.377  12.927  10.314  0.00  0.00     0.165 HD
HETATM   32  H   UNK     0     -23.765  14.710   8.039  0.00  0.00     0.165 HD
ENDROOT
BRANCH   6  33
HETATM   33  C   UNK     0     -30.132  14.917   6.569  0.00  0.00     0.051 C 
BRANCH  33  34
HETATM   34  C   UNK     0     -30.718  14.449   7.881  0.00  0.00     0.114 C 
BRANCH  34  35
HETATM   35  C   UNK     0     -31.182  13.045   7.687  0.00  0.00     0.139 C 
HETATM   36  O   UNK     0     -30.772  12.127   8.455  0.00  0.00    -0.650 OA
BRANCH  35  37
HETATM   37  O   UNK     0     -32.068  12.681   6.680  0.00  0.00    -0.776 OA
HETATM   38  H   UNK     0     -32.293  11.718   6.489  0.00  0.00     0.167 HD
ENDBRANCH  35  37
ENDBRANCH  34  35
ENDBRANCH  33  34
ENDBRANCH   6  33
BRANCH  27  39
HETATM   39  C   UNK     0     -23.837  17.021  12.192  0.00  0.00     0.051 C 
BRANCH  39  40
HETATM   40  C   UNK     0     -22.680  17.884  12.430  0.00  0.00     0.114 C 
BRANCH  40  41
HETATM   41  C   UNK     0     -22.813  19.220  12.966  0.00  0.00     0.139 C 
HETATM   42  O   UNK     0     -22.428  20.236  12.372  0.00  0.00    -0.650 OA
BRANCH  41  43
HETATM   43  O   UNK     0     -23.416  19.395  14.244  0.00  0.00    -0.776 OA
HETATM   44  H   UNK     0     -22.775  19.320  15.024  0.00  0.00     0.167 HD
ENDBRANCH  41  43
ENDBRANCH  40  41
ENDBRANCH  39  40
ENDBRANCH  27  39
BRANCH  11  45
HETATM   45  C   UNK     0     -25.397   8.389   6.864  0.00  0.00     0.051 C 
BRANCH  45  46
HETATM   46  C   UNK     0     -26.336   7.238   6.855  0.00  0.00     0.114 C 
BRANCH  46  47
HETATM   47  C   UNK     0     -26.215   6.579   5.522  0.00  0.00     0.139 C 
HETATM   48  O   UNK     0     -27.124   5.823   5.151  0.00  0.00    -0.650 OA
BRANCH  47  49
HETATM   49  O   UNK     0     -25.122   6.804   4.724  0.00  0.00    -0.776 OA
HETATM   50  H   UNK     0     -24.953   7.711   4.274  0.00  0.00     0.167 HD
ENDBRANCH  47  49
ENDBRANCH  46  47
ENDBRANCH  45  46
ENDBRANCH  11  45
BRANCH  18  51
HETATM   51  C   UNK     0     -20.757  11.969  10.660  0.00  0.00     0.051 C 
BRANCH  51  52
HETATM   52  C   UNK     0     -20.536  11.669  12.135  0.00  0.00     0.114 C 
BRANCH  52  53
HETATM   53  C   UNK     0     -19.562  10.579  12.334  0.00  0.00     0.139 C 
HETATM   54  O   UNK     0     -19.009  10.433  13.436  0.00  0.00    -0.650 OA
BRANCH  53  55
HETATM   55  O   UNK     0     -19.270   9.730  11.294  0.00  0.00    -0.776 OA
HETATM   56  H   UNK     0     -19.886   9.474  10.559  0.00  0.00     0.167 HD
ENDBRANCH  53  55
ENDBRANCH  52  53
ENDBRANCH  51  52
ENDBRANCH  18  51
TORSDOF 16
ENDMDL
MODEL 18
REMARK VINA RESULT:      -8.8     29.916     34.345
REMARK  16 active torsions:
REMARK  status: ('A' for Active; 'I' for Inactive)
REMARK    1  A    between atoms: C_6  and  C_7 
REMARK    2  A    between atoms: C_7  and  C_8 
REMARK    3  A    between atoms: C_8  and  C_9 
REMARK    4  A    between atoms: C_9  and  O_11 
REMARK    5  A    between atoms: C_16  and  C_17 
REMARK    6  A    between atoms: C_17  and  C_18 
REMARK    7  A    between atoms: C_18  and  C_19 
REMARK    8  A    between atoms: C_19  and  O_21 
REMARK    9  A    between atoms: C_28  and  C_29 
REMARK   10  A    between atoms: C_29  and  C_30 
REMARK   11  A    between atoms: C_30  and  C_31 
REMARK   12  A    between atoms: C_31  and  O_33 
REMARK   13  A    between atoms: C_42  and  C_43 
REMARK   14  A    between atoms: C_43  and  C_44 
REMARK   15  A    between atoms: C_44  and  C_45 
REMARK   16  A    between atoms: C_45  and  O_47 
ROOT
HETATM    1  C   UNK     0     -25.567   9.871   9.174  0.00  0.00     0.051 C 
HETATM    2  C   UNK     0     -25.170  11.285   8.803  0.00  0.00    -0.031 A 
HETATM    3  C   UNK     0     -25.556  12.051   7.714  0.00  0.00     0.021 A 
HETATM    4  N   UNK     0     -24.927  13.248   7.770  0.00  0.00    -0.361 N 
HETATM    5  C   UNK     0     -24.154  13.266   8.876  0.00  0.00     0.022 A 
HETATM    6  C   UNK     0     -24.280  12.052   9.544  0.00  0.00    -0.027 A 
HETATM    7  C   UNK     0     -23.332  14.380   9.445  0.00  0.00     0.115 C 
HETATM    8  C   UNK     0     -23.962  15.762   9.443  0.00  0.00     0.021 A 
HETATM    9  N   UNK     0     -25.249  16.094   9.630  0.00  0.00    -0.361 N 
HETATM   10  C   UNK     0     -25.367  17.427   9.451  0.00  0.00     0.022 A 
HETATM   11  C   UNK     0     -24.121  17.969   9.150  0.00  0.00    -0.027 A 
HETATM   12  C   UNK     0     -23.231  16.926   9.143  0.00  0.00    -0.031 A 
HETATM   13  C   UNK     0     -21.749  17.043   8.867  0.00  0.00     0.051 C 
HETATM   14  C   UNK     0     -26.663  18.231   9.504  0.00  0.00     0.115 C 
HETATM   15  C   UNK     0     -27.691  17.812   8.465  0.00  0.00     0.021 A 
HETATM   16  N   UNK     0     -28.245  16.596   8.302  0.00  0.00    -0.361 N 
HETATM   17  C   UNK     0     -29.048  16.619   7.236  0.00  0.00     0.022 A 
HETATM   18  C   UNK     0     -29.023  17.915   6.683  0.00  0.00    -0.027 A 
HETATM   19  C   UNK     0     -28.170  18.652   7.463  0.00  0.00    -0.031 A 
HETATM   20  C   UNK     0     -27.881  20.125   7.236  0.00  0.00     0.051 C 
HETATM   21  C   UNK     0     -29.840  15.504   6.592  0.00  0.00     0.115 C 
HETATM   22  C   UNK     0     -29.245  14.116   6.626  0.00  0.00     0.022 A 
HETATM   23  N   UNK     0     -27.968  13.756   6.447  0.00  0.00    -0.361 N 
HETATM   24  C   UNK     0     -27.859  12.437   6.707  0.00  0.00     0.021 A 
HETATM   25  C   UNK     0     -29.099  11.934   7.051  0.00  0.00    -0.031 A 
HETATM   26  C   UNK     0     -29.489  10.510   7.387  0.00  0.00     0.051 C 
HETATM   27  C   UNK     0     -30.002  12.989   7.006  0.00  0.00    -0.027 A 
HETATM   28  C   UNK     0     -26.595  11.595   6.728  0.00  0.00     0.115 C 
HETATM   29  H   UNK     0     -25.002  14.058   7.008  0.00  0.00     0.165 HD
HETATM   30  H   UNK     0     -26.067  15.398   9.938  0.00  0.00     0.165 HD
HETATM   31  H   UNK     0     -28.105  15.715   8.982  0.00  0.00     0.165 HD
HETATM   32  H   UNK     0     -27.137  14.421   6.094  0.00  0.00     0.165 HD
ENDROOT
BRANCH   6  33
HETATM   33  C   UNK     0     -23.625  11.572  10.814  0.00  0.00     0.051 C 
BRANCH  33  34
HETATM   34  C   UNK     0     -22.188  11.182  10.562  0.00  0.00     0.114 C 
BRANCH  34  35
HETATM   35  C   UNK     0     -22.160   9.709  10.326  0.00  0.00     0.139 C 
HETATM   36  O   UNK     0     -22.793   8.929  11.096  0.00  0.00    -0.650 OA
BRANCH  35  37
HETATM   37  O   UNK     0     -21.459   9.132   9.275  0.00  0.00    -0.776 OA
HETATM   38  H   UNK     0     -20.756   9.638   8.759  0.00  0.00     0.167 HD
ENDBRANCH  35  37
ENDBRANCH  34  35
ENDBRANCH  33  34
ENDBRANCH   6  33
BRANCH  27  39
HETATM   39  C   UNK     0     -31.461  12.819   7.248  0.00  0.00     0.051 C 
BRANCH  39  40
HETATM   40  C   UNK     0     -32.324  12.517   6.106  0.00  0.00     0.114 C 
BRANCH  40  41
HETATM   41  C   UNK     0     -31.874  12.664   4.741  0.00  0.00     0.139 C 
HETATM   42  O   UNK     0     -31.448  11.724   4.056  0.00  0.00    -0.650 OA
BRANCH  41  43
HETATM   43  O   UNK     0     -31.915  13.952   4.134  0.00  0.00    -0.776 OA
HETATM   44  H   UNK     0     -32.410  14.653   4.672  0.00  0.00     0.167 HD
ENDBRANCH  41  43
ENDBRANCH  40  41
ENDBRANCH  39  40
ENDBRANCH  27  39
BRANCH  11  45
HETATM   45  C   UNK     0     -23.760  19.405   8.878  0.00  0.00     0.051 C 
BRANCH  45  46
HETATM   46  C   UNK     0     -23.512  20.209  10.102  0.00  0.00     0.114 C 
BRANCH  46  47
HETATM   47  C   UNK     0     -22.036  20.371  10.233  0.00  0.00     0.139 C 
HETATM   48  O   UNK     0     -21.459  19.808  11.174  0.00  0.00    -0.650 OA
BRANCH  47  49
HETATM   49  O   UNK     0     -21.330  21.128   9.332  0.00  0.00    -0.776 OA
HETATM   50  H   UNK     0     -20.328  20.977   9.160  0.00  0.00     0.167 HD
ENDBRANCH  47  49
ENDBRANCH  46  47
ENDBRANCH  45  46
ENDBRANCH  11  45
BRANCH  18  51
HETATM   51  C   UNK     0     -29.786  18.427   5.489  0.00  0.00     0.051 C 
BRANCH  51  52
HETATM   52  C   UNK     0     -31.261  18.260   5.823  0.00  0.00     0.114 C 
BRANCH  52  53
HETATM   53  C   UNK     0     -32.002  17.608   4.726  0.00  0.00     0.139 C 
HETATM   54  O   UNK     0     -32.796  16.686   4.974  0.00  0.00    -0.650 OA
BRANCH  53  55
HETATM   55  O   UNK     0     -31.806  18.025   3.432  0.00  0.00    -0.776 OA
HETATM   56  H   UNK     0     -31.502  18.926   3.148  0.00  0.00     0.167 HD
ENDBRANCH  53  55
ENDBRANCH  52  53
ENDBRANCH  51  52
ENDBRANCH  18  51
TORSDOF 16
ENDMDL
MODEL 19
REMARK VINA RESULT:      -8.8      2.528      7.884
REMARK  16 active torsions:
REMARK  status: ('A' for Active; 'I' for Inactive)
REMARK    1  A    between atoms: C_6  and  C_7 
REMARK    2  A    between atoms: C_7  and  C_8 
REMARK    3  A    between atoms: C_8  and  C_9 
REMARK    4  A    between atoms: C_9  and  O_11 
REMARK    5  A    between atoms: C_16  and  C_17 
REMARK    6  A    between atoms: C_17  and  C_18 
REMARK    7  A    between atoms: C_18  and  C_19 
REMARK    8  A    between atoms: C_19  and  O_21 
REMARK    9  A    between atoms: C_28  and  C_29 
REMARK   10  A    between atoms: C_29  and  C_30 
REMARK   11  A    between atoms: C_30  and  C_31 
REMARK   12  A    between atoms: C_31  and  O_33 
REMARK   13  A    between atoms: C_42  and  C_43 
REMARK   14  A    between atoms: C_43  and  C_44 
REMARK   15  A    between atoms: C_44  and  C_45 
REMARK   16  A    between atoms: C_45  and  O_47 
ROOT
HETATM    1  C   UNK     0      -4.922   6.760 -12.792  0.00  0.00     0.051 C 
HETATM    2  C   UNK     0      -4.302   5.384 -12.658  0.00  0.00    -0.031 A 
HETATM    3  C   UNK     0      -2.977   5.033 -12.454  0.00  0.00     0.021 A 
HETATM    4  N   UNK     0      -2.878   3.682 -12.429  0.00  0.00    -0.361 N 
HETATM    5  C   UNK     0      -4.112   3.166 -12.605  0.00  0.00     0.022 A 
HETATM    6  C   UNK     0      -5.026   4.203 -12.755  0.00  0.00    -0.027 A 
HETATM    7  C   UNK     0      -4.561   1.738 -12.566  0.00  0.00     0.115 C 
HETATM    8  C   UNK     0      -3.977   0.870 -11.466  0.00  0.00     0.021 A 
HETATM    9  N   UNK     0      -3.666   1.213 -10.206  0.00  0.00    -0.361 N 
HETATM   10  C   UNK     0      -3.089   0.148  -9.611  0.00  0.00     0.022 A 
HETATM   11  C   UNK     0      -3.035  -0.914 -10.510  0.00  0.00    -0.027 A 
HETATM   12  C   UNK     0      -3.593  -0.466 -11.680  0.00  0.00    -0.031 A 
HETATM   13  C   UNK     0      -3.754  -1.284 -12.941  0.00  0.00     0.051 C 
HETATM   14  C   UNK     0      -2.519   0.104  -8.196  0.00  0.00     0.115 C 
HETATM   15  C   UNK     0      -1.384   1.087  -7.959  0.00  0.00     0.021 A 
HETATM   16  N   UNK     0      -1.415   2.426  -8.095  0.00  0.00    -0.361 N 
HETATM   17  C   UNK     0      -0.196   2.918  -7.862  0.00  0.00     0.022 A 
HETATM   18  C   UNK     0       0.668   1.850  -7.550  0.00  0.00    -0.027 A 
HETATM   19  C   UNK     0      -0.089   0.709  -7.613  0.00  0.00    -0.031 A 
HETATM   20  C   UNK     0       0.449  -0.678  -7.308  0.00  0.00     0.051 C 
HETATM   21  C   UNK     0       0.312   4.339  -7.956  0.00  0.00     0.115 C 
HETATM   22  C   UNK     0      -0.292   5.228  -9.018  0.00  0.00     0.022 A 
HETATM   23  N   UNK     0      -0.615   4.912 -10.279  0.00  0.00    -0.361 N 
HETATM   24  C   UNK     0      -1.259   5.962 -10.827  0.00  0.00     0.021 A 
HETATM   25  C   UNK     0      -1.342   6.983  -9.900  0.00  0.00    -0.031 A 
HETATM   26  C   UNK     0      -1.935   8.368 -10.058  0.00  0.00     0.051 C 
HETATM   27  C   UNK     0      -0.730   6.537  -8.734  0.00  0.00    -0.027 A 
HETATM   28  C   UNK     0      -1.897   6.046 -12.202  0.00  0.00     0.115 C 
HETATM   29  H   UNK     0      -1.931   3.103 -12.328  0.00  0.00     0.165 HD
HETATM   30  H   UNK     0      -3.898   2.191  -9.718  0.00  0.00     0.165 HD
HETATM   31  H   UNK     0      -2.326   3.042  -8.314  0.00  0.00     0.165 HD
HETATM   32  H   UNK     0      -0.354   3.959 -10.808  0.00  0.00     0.165 HD
ENDROOT
BRANCH   6  33
HETATM   33  C   UNK     0      -6.516   4.157 -12.981  0.00  0.00     0.051 C 
BRANCH  33  34
HETATM   34  C   UNK     0      -6.834   3.551 -14.328  0.00  0.00     0.114 C 
BRANCH  34  35
HETATM   35  C   UNK     0      -8.277   3.809 -14.604  0.00  0.00     0.139 C 
HETATM   36  O   UNK     0      -8.634   4.876 -15.182  0.00  0.00    -0.650 OA
BRANCH  35  37
HETATM   37  O   UNK     0      -9.279   2.913 -14.252  0.00  0.00    -0.776 OA
HETATM   38  H   UNK     0      -9.534   2.746 -13.292  0.00  0.00     0.167 HD
ENDBRANCH  35  37
ENDBRANCH  34  35
ENDBRANCH  33  34
ENDBRANCH   6  33
BRANCH  27  39
HETATM   39  C   UNK     0      -0.561   7.393  -7.528  0.00  0.00     0.051 C 
BRANCH  39  40
HETATM   40  C   UNK     0      -1.506   7.229  -6.423  0.00  0.00     0.114 C 
BRANCH  40  41
HETATM   41  C   UNK     0      -2.423   8.275  -6.032  0.00  0.00     0.139 C 
HETATM   42  O   UNK     0      -3.048   8.272  -4.963  0.00  0.00    -0.650 OA
BRANCH  41  43
HETATM   43  O   UNK     0      -2.632   9.375  -6.911  0.00  0.00    -0.776 OA
HETATM   44  H   UNK     0      -2.690   9.124  -7.891  0.00  0.00     0.167 HD
ENDBRANCH  41  43
ENDBRANCH  40  41
ENDBRANCH  39  40
ENDBRANCH  27  39
BRANCH  11  45
HETATM   45  C   UNK     0      -2.489  -2.300 -10.297  0.00  0.00     0.051 C 
BRANCH  45  46
HETATM   46  C   UNK     0      -1.538  -2.745 -11.348  0.00  0.00     0.114 C 
BRANCH  46  47
HETATM   47  C   UNK     0      -0.466  -1.712 -11.439  0.00  0.00     0.139 C 
HETATM   48  O   UNK     0       0.210  -1.471 -10.429  0.00  0.00    -0.650 OA
BRANCH  47  49
HETATM   49  O   UNK     0      -0.234  -1.042 -12.613  0.00  0.00    -0.776 OA
HETATM   50  H   UNK     0       0.526  -1.307 -13.251  0.00  0.00     0.167 HD
ENDBRANCH  47  49
ENDBRANCH  46  47
ENDBRANCH  45  46
ENDBRANCH  11  45
BRANCH  18  51
HETATM   51  C   UNK     0       2.130   1.916  -7.191  0.00  0.00     0.051 C 
BRANCH  51  52
HETATM   52  C   UNK     0       2.894   1.858  -8.505  0.00  0.00     0.114 C 
BRANCH  52  53
HETATM   53  C   UNK     0       3.662   3.094  -8.749  0.00  0.00     0.139 C 
HETATM   54  O   UNK     0       4.058   3.364  -9.894  0.00  0.00    -0.650 OA
BRANCH  53  55
HETATM   55  O   UNK     0       3.938   3.940  -7.702  0.00  0.00    -0.776 OA
HETATM   56  H   UNK     0       3.304   4.581  -7.286  0.00  0.00     0.167 HD
ENDBRANCH  53  55
ENDBRANCH  52  53
ENDBRANCH  51  52
ENDBRANCH  18  51
TORSDOF 16
ENDMDL
MODEL 20
REMARK VINA RESULT:      -8.7     29.822     33.484
REMARK  16 active torsions:
REMARK  status: ('A' for Active; 'I' for Inactive)
REMARK    1  A    between atoms: C_6  and  C_7 
REMARK    2  A    between atoms: C_7  and  C_8 
REMARK    3  A    between atoms: C_8  and  C_9 
REMARK    4  A    between atoms: C_9  and  O_11 
REMARK    5  A    between atoms: C_16  and  C_17 
REMARK    6  A    between atoms: C_17  and  C_18 
REMARK    7  A    between atoms: C_18  and  C_19 
REMARK    8  A    between atoms: C_19  and  O_21 
REMARK    9  A    between atoms: C_28  and  C_29 
REMARK   10  A    between atoms: C_29  and  C_30 
REMARK   11  A    between atoms: C_30  and  C_31 
REMARK   12  A    between atoms: C_31  and  O_33 
REMARK   13  A    between atoms: C_42  and  C_43 
REMARK   14  A    between atoms: C_43  and  C_44 
REMARK   15  A    between atoms: C_44  and  C_45 
REMARK   16  A    between atoms: C_45  and  O_47 
ROOT
HETATM    1  C   UNK     0     -19.221  16.472  11.629  0.00  0.00     0.051 C 
HETATM    2  C   UNK     0     -20.533  15.755  11.383  0.00  0.00    -0.031 A 
HETATM    3  C   UNK     0     -21.831  16.218  11.535  0.00  0.00     0.021 A 
HETATM    4  N   UNK     0     -22.694  15.220  11.230  0.00  0.00    -0.361 N 
HETATM    5  C   UNK     0     -21.975  14.134  10.878  0.00  0.00     0.022 A 
HETATM    6  C   UNK     0     -20.619  14.433  10.966  0.00  0.00    -0.027 A 
HETATM    7  C   UNK     0     -22.443  12.807  10.367  0.00  0.00     0.115 C 
HETATM    8  C   UNK     0     -23.561  12.828   9.340  0.00  0.00     0.021 A 
HETATM    9  N   UNK     0     -23.780  13.720   8.361  0.00  0.00    -0.361 N 
HETATM   10  C   UNK     0     -24.939  13.395   7.751  0.00  0.00     0.022 A 
HETATM   11  C   UNK     0     -25.477  12.258   8.346  0.00  0.00    -0.027 A 
HETATM   12  C   UNK     0     -24.613  11.895   9.348  0.00  0.00    -0.031 A 
HETATM   13  C   UNK     0     -24.788  10.706  10.265  0.00  0.00     0.051 C 
HETATM   14  C   UNK     0     -25.612  14.171   6.622  0.00  0.00     0.115 C 
HETATM   15  C   UNK     0     -25.990  15.596   6.994  0.00  0.00     0.021 A 
HETATM   16  N   UNK     0     -25.174  16.578   7.421  0.00  0.00    -0.361 N 
HETATM   17  C   UNK     0     -25.902  17.658   7.710  0.00  0.00     0.022 A 
HETATM   18  C   UNK     0     -27.257  17.370   7.450  0.00  0.00    -0.027 A 
HETATM   19  C   UNK     0     -27.298  16.076   7.000  0.00  0.00    -0.031 A 
HETATM   20  C   UNK     0     -28.572  15.373   6.569  0.00  0.00     0.051 C 
HETATM   21  C   UNK     0     -25.479  18.990   8.288  0.00  0.00     0.115 C 
HETATM   22  C   UNK     0     -24.338  18.989   9.279  0.00  0.00     0.022 A 
HETATM   23  N   UNK     0     -24.093  18.111  10.261  0.00  0.00    -0.361 N 
HETATM   24  C   UNK     0     -22.895  18.408  10.804  0.00  0.00     0.021 A 
HETATM   25  C   UNK     0     -22.361  19.510  10.163  0.00  0.00    -0.031 A 
HETATM   26  C   UNK     0     -21.063  20.239  10.442  0.00  0.00     0.051 C 
HETATM   27  C   UNK     0     -23.267  19.900   9.183  0.00  0.00    -0.027 A 
HETATM   28  C   UNK     0     -22.149  17.644  11.884  0.00  0.00     0.115 C 
HETATM   29  H   UNK     0     -23.805  15.278  11.304  0.00  0.00     0.165 HD
HETATM   30  H   UNK     0     -23.093  14.551   8.066  0.00  0.00     0.165 HD
HETATM   31  H   UNK     0     -24.056  16.523   7.475  0.00  0.00     0.165 HD
HETATM   32  H   UNK     0     -24.783  17.300  10.609  0.00  0.00     0.165 HD
ENDROOT
BRANCH   6  33
HETATM   33  C   UNK     0     -19.415  13.568  10.689  0.00  0.00     0.051 C 
BRANCH  33  34
HETATM   34  C   UNK     0     -18.919  12.920  11.959  0.00  0.00     0.114 C 
BRANCH  34  35
HETATM   35  C   UNK     0     -19.661  11.637  12.125  0.00  0.00     0.139 C 
HETATM   36  O   UNK     0     -20.442  11.476  13.107  0.00  0.00    -0.650 OA
BRANCH  35  37
HETATM   37  O   UNK     0     -19.539  10.580  11.232  0.00  0.00    -0.776 OA
HETATM   38  H   UNK     0     -18.654  10.136  11.047  0.00  0.00     0.167 HD
ENDBRANCH  35  37
ENDBRANCH  34  35
ENDBRANCH  33  34
ENDBRANCH   6  33
BRANCH  27  39
HETATM   39  C   UNK     0     -23.069  21.101   8.328  0.00  0.00     0.051 C 
BRANCH  39  40
HETATM   40  C   UNK     0     -23.870  22.292   8.609  0.00  0.00     0.114 C 
BRANCH  40  41
HETATM   41  C   UNK     0     -24.571  23.012   7.569  0.00  0.00     0.139 C 
HETATM   42  O   UNK     0     -24.005  23.736   6.738  0.00  0.00    -0.650 OA
BRANCH  41  43
HETATM   43  O   UNK     0     -25.987  22.895   7.481  0.00  0.00    -0.776 OA
HETATM   44  H   UNK     0     -26.374  22.104   7.982  0.00  0.00     0.167 HD
ENDBRANCH  41  43
ENDBRANCH  40  41
ENDBRANCH  39  40
ENDBRANCH  27  39
BRANCH  11  45
HETATM   45  C   UNK     0     -26.745  11.524   8.002  0.00  0.00     0.051 C 
BRANCH  45  46
HETATM   46  C   UNK     0     -26.526  10.202   7.361  0.00  0.00     0.114 C 
BRANCH  46  47
HETATM   47  C   UNK     0     -27.411   9.223   8.055  0.00  0.00     0.139 C 
HETATM   48  O   UNK     0     -27.681   8.159   7.481  0.00  0.00    -0.650 OA
BRANCH  47  49
HETATM   49  O   UNK     0     -27.916   9.493   9.302  0.00  0.00    -0.776 OA
HETATM   50  H   UNK     0     -28.788   9.070   9.640  0.00  0.00     0.167 HD
ENDBRANCH  47  49
ENDBRANCH  46  47
ENDBRANCH  45  46
ENDBRANCH  11  45
BRANCH  18  51
HETATM   51  C   UNK     0     -28.444  18.285   7.600  0.00  0.00     0.051 C 
BRANCH  51  52
HETATM   52  C   UNK     0     -28.876  18.659   6.190  0.00  0.00     0.114 C 
BRANCH  52  53
HETATM   53  C   UNK     0     -28.582  20.071   5.881  0.00  0.00     0.139 C 
HETATM   54  O   UNK     0     -29.048  20.593   4.856  0.00  0.00    -0.650 OA
BRANCH  53  55
HETATM   55  O   UNK     0     -27.788  20.802   6.731  0.00  0.00    -0.776 OA
HETATM   56  H   UNK     0     -27.745  21.792   6.784  0.00  0.00     0.167 HD
ENDBRANCH  53  55
ENDBRANCH  52  53
ENDBRANCH  51  52
ENDBRANCH  18  51
TORSDOF 16
ENDMDL
