MODEL 1
REMARK VINA RESULT:      -9.4      0.000      0.000
REMARK  16 active torsions:
REMARK  status: ('A' for Active; 'I' for Inactive)
REMARK    1  A    between atoms: C_6  and  C_7 
REMARK    2  A    between atoms: C_7  and  C_8 
REMARK    3  A    between atoms: C_8  and  C_9 
REMARK    4  A    between atoms: C_9  and  O_11 
REMARK    5  A    between atoms: C_16  and  C_17 
REMARK    6  A    between atoms: C_17  and  C_18 
REMARK    7  A    between atoms: C_18  and  C_19 
REMARK    8  A    between atoms: C_19  and  O_21 
REMARK    9  A    between atoms: C_28  and  C_29 
REMARK   10  A    between atoms: C_29  and  C_30 
REMARK   11  A    between atoms: C_30  and  C_31 
REMARK   12  A    between atoms: C_31  and  O_33 
REMARK   13  A    between atoms: C_42  and  C_43 
REMARK   14  A    between atoms: C_43  and  C_44 
REMARK   15  A    between atoms: C_44  and  C_45 
REMARK   16  A    between atoms: C_45  and  O_47 
ROOT
HETATM    1  C   UNK     0     -35.719  11.386   3.462  0.00  0.00     0.051 C 
HETATM    2  C   UNK     0     -36.005  10.024   4.060  0.00  0.00    -0.031 A 
HETATM    3  C   UNK     0     -35.989   8.777   3.455  0.00  0.00     0.021 A 
HETATM    4  N   UNK     0     -36.340   7.839   4.367  0.00  0.00    -0.361 N 
HETATM    5  C   UNK     0     -36.570   8.461   5.542  0.00  0.00     0.022 A 
HETATM    6  C   UNK     0     -36.373   9.828   5.385  0.00  0.00    -0.027 A 
HETATM    7  C   UNK     0     -36.893   7.875   6.881  0.00  0.00     0.115 C 
HETATM    8  C   UNK     0     -36.110   6.640   7.292  0.00  0.00     0.021 A 
HETATM    9  N   UNK     0     -34.828   6.340   7.036  0.00  0.00    -0.361 N 
HETATM   10  C   UNK     0     -34.584   5.101   7.512  0.00  0.00     0.022 A 
HETATM   11  C   UNK     0     -35.739   4.592   8.099  0.00  0.00    -0.027 A 
HETATM   12  C   UNK     0     -36.704   5.557   7.964  0.00  0.00    -0.031 A 
HETATM   13  C   UNK     0     -38.128   5.445   8.461  0.00  0.00     0.051 C 
HETATM   14  C   UNK     0     -33.274   4.328   7.387  0.00  0.00     0.115 C 
HETATM   15  C   UNK     0     -32.851   4.062   5.951  0.00  0.00     0.021 A 
HETATM   16  N   UNK     0     -32.615   4.967   4.983  0.00  0.00    -0.361 N 
HETATM   17  C   UNK     0     -32.336   4.329   3.844  0.00  0.00     0.022 A 
HETATM   18  C   UNK     0     -32.383   2.941   4.084  0.00  0.00    -0.027 A 
HETATM   19  C   UNK     0     -32.705   2.787   5.408  0.00  0.00    -0.031 A 
HETATM   20  C   UNK     0     -32.824   1.440   6.096  0.00  0.00     0.051 C 
HETATM   21  C   UNK     0     -32.071   4.879   2.461  0.00  0.00     0.115 C 
HETATM   22  C   UNK     0     -32.810   6.133   2.056  0.00  0.00     0.022 A 
HETATM   23  N   UNK     0     -34.086   6.460   2.300  0.00  0.00    -0.361 N 
HETATM   24  C   UNK     0     -34.284   7.728   1.887  0.00  0.00     0.021 A 
HETATM   25  C   UNK     0     -33.111   8.226   1.354  0.00  0.00    -0.031 A 
HETATM   26  C   UNK     0     -32.847   9.579   0.728  0.00  0.00     0.051 C 
HETATM   27  C   UNK     0     -32.153   7.223   1.451  0.00  0.00    -0.027 A 
HETATM   28  C   UNK     0     -35.541   8.568   2.036  0.00  0.00     0.115 C 
HETATM   29  H   UNK     0     -36.461   6.750   4.164  0.00  0.00     0.165 HD
HETATM   30  H   UNK     0     -34.077   7.021   6.564  0.00  0.00     0.165 HD
HETATM   31  H   UNK     0     -32.599   6.080   5.116  0.00  0.00     0.165 HD
HETATM   32  H   UNK     0     -34.870   5.783   2.728  0.00  0.00     0.165 HD
ENDROOT
BRANCH   6  33
HETATM   33  C   UNK     0     -36.507  10.949   6.384  0.00  0.00     0.051 C 
BRANCH  33  34
HETATM   34  C   UNK     0     -37.883  11.568   6.312  0.00  0.00     0.114 C 
BRANCH  34  35
HETATM   35  C   UNK     0     -38.499  11.446   7.665  0.00  0.00     0.139 C 
HETATM   36  O   UNK     0     -39.537  12.109   7.954  0.00  0.00    -0.650 OA
BRANCH  35  37
HETATM   37  O   UNK     0     -37.980  10.618   8.652  0.00  0.00    -0.776 OA
HETATM   38  H   UNK     0     -37.318   9.887   8.444  0.00  0.00     0.167 HD
ENDBRANCH  35  37
ENDBRANCH  34  35
ENDBRANCH  33  34
ENDBRANCH   6  33
BRANCH  27  39
HETATM   39  C   UNK     0     -30.773   7.366   0.912  0.00  0.00     0.051 C 
BRANCH  39  40
HETATM   40  C   UNK     0     -30.496   6.856  -0.431  0.00  0.00     0.114 C 
BRANCH  40  41
HETATM   41  C   UNK     0     -31.008   5.586  -0.894  0.00  0.00     0.139 C 
HETATM   42  O   UNK     0     -32.160   5.429  -1.321  0.00  0.00    -0.650 OA
BRANCH  41  43
HETATM   43  O   UNK     0     -30.157   4.445  -0.863  0.00  0.00    -0.776 OA
HETATM   44  H   UNK     0     -30.636   3.570  -0.690  0.00  0.00     0.167 HD
ENDBRANCH  41  43
ENDBRANCH  40  41
ENDBRANCH  39  40
ENDBRANCH  27  39
BRANCH  11  45
HETATM   45  C   UNK     0     -35.948   3.260   8.767  0.00  0.00     0.051 C 
BRANCH  45  46
HETATM   46  C   UNK     0     -35.075   3.029   9.946  0.00  0.00     0.114 C 
BRANCH  46  47
HETATM   47  C   UNK     0     -35.161   1.579  10.283  0.00  0.00     0.139 C 
HETATM   48  O   UNK     0     -34.126   0.988  10.621  0.00  0.00    -0.650 OA
BRANCH  47  49
HETATM   49  O   UNK     0     -36.358   0.913  10.218  0.00  0.00    -0.776 OA
HETATM   50  H   UNK     0     -37.258   1.401  10.295  0.00  0.00     0.167 HD
ENDBRANCH  47  49
ENDBRANCH  46  47
ENDBRANCH  45  46
ENDBRANCH  11  45
BRANCH  18  51
HETATM   51  C   UNK     0     -32.114   1.823   3.111  0.00  0.00     0.051 C 
BRANCH  51  52
HETATM   52  C   UNK     0     -30.971   1.010   3.701  0.00  0.00     0.114 C 
BRANCH  52  53
HETATM   53  C   UNK     0     -31.142  -0.435   3.456  0.00  0.00     0.139 C 
HETATM   54  O   UNK     0     -30.439  -1.010   2.610  0.00  0.00    -0.650 OA
BRANCH  53  55
HETATM   55  O   UNK     0     -32.084  -1.138   4.167  0.00  0.00    -0.776 OA
HETATM   56  H   UNK     0     -31.920  -1.960   4.700  0.00  0.00     0.167 HD
ENDBRANCH  53  55
ENDBRANCH  52  53
ENDBRANCH  51  52
ENDBRANCH  18  51
TORSDOF 16
ENDMDL
MODEL 2
REMARK VINA RESULT:      -9.0      9.791     13.840
REMARK  16 active torsions:
REMARK  status: ('A' for Active; 'I' for Inactive)
REMARK    1  A    between atoms: C_6  and  C_7 
REMARK    2  A    between atoms: C_7  and  C_8 
REMARK    3  A    between atoms: C_8  and  C_9 
REMARK    4  A    between atoms: C_9  and  O_11 
REMARK    5  A    between atoms: C_16  and  C_17 
REMARK    6  A    between atoms: C_17  and  C_18 
REMARK    7  A    between atoms: C_18  and  C_19 
REMARK    8  A    between atoms: C_19  and  O_21 
REMARK    9  A    between atoms: C_28  and  C_29 
REMARK   10  A    between atoms: C_29  and  C_30 
REMARK   11  A    between atoms: C_30  and  C_31 
REMARK   12  A    between atoms: C_31  and  O_33 
REMARK   13  A    between atoms: C_42  and  C_43 
REMARK   14  A    between atoms: C_43  and  C_44 
REMARK   15  A    between atoms: C_44  and  C_45 
REMARK   16  A    between atoms: C_45  and  O_47 
ROOT
HETATM    1  C   UNK     0     -41.814  20.675  -3.330  0.00  0.00     0.051 C 
HETATM    2  C   UNK     0     -41.537  19.566  -2.335  0.00  0.00    -0.031 A 
HETATM    3  C   UNK     0     -40.493  18.655  -2.302  0.00  0.00     0.021 A 
HETATM    4  N   UNK     0     -40.667  17.823  -1.248  0.00  0.00    -0.361 N 
HETATM    5  C   UNK     0     -41.794  18.189  -0.603  0.00  0.00     0.022 A 
HETATM    6  C   UNK     0     -42.365  19.275  -1.259  0.00  0.00    -0.027 A 
HETATM    7  C   UNK     0     -42.379  17.658   0.668  0.00  0.00     0.115 C 
HETATM    8  C   UNK     0     -41.408  17.382   1.802  0.00  0.00     0.021 A 
HETATM    9  N   UNK     0     -40.300  18.060   2.139  0.00  0.00    -0.361 N 
HETATM   10  C   UNK     0     -39.698  17.403   3.153  0.00  0.00     0.022 A 
HETATM   11  C   UNK     0     -40.443  16.275   3.484  0.00  0.00    -0.027 A 
HETATM   12  C   UNK     0     -41.522  16.256   2.637  0.00  0.00    -0.031 A 
HETATM   13  C   UNK     0     -42.612  15.208   2.635  0.00  0.00     0.051 C 
HETATM   14  C   UNK     0     -38.374  17.781   3.811  0.00  0.00     0.115 C 
HETATM   15  C   UNK     0     -37.190  17.778   2.858  0.00  0.00     0.021 A 
HETATM   16  N   UNK     0     -37.039  18.502   1.733  0.00  0.00    -0.361 N 
HETATM   17  C   UNK     0     -35.892  18.161   1.143  0.00  0.00     0.022 A 
HETATM   18  C   UNK     0     -35.259  17.175   1.926  0.00  0.00    -0.027 A 
HETATM   19  C   UNK     0     -36.082  16.945   2.998  0.00  0.00    -0.031 A 
HETATM   20  C   UNK     0     -35.758  15.972   4.117  0.00  0.00     0.051 C 
HETATM   21  C   UNK     0     -35.299  18.623  -0.169  0.00  0.00     0.115 C 
HETATM   22  C   UNK     0     -36.256  18.944  -1.293  0.00  0.00     0.022 A 
HETATM   23  N   UNK     0     -37.368  18.288  -1.648  0.00  0.00    -0.361 N 
HETATM   24  C   UNK     0     -37.993  19.002  -2.607  0.00  0.00     0.021 A 
HETATM   25  C   UNK     0     -37.259  20.140  -2.882  0.00  0.00    -0.031 A 
HETATM   26  C   UNK     0     -37.530  21.225  -3.904  0.00  0.00     0.051 C 
HETATM   27  C   UNK     0     -36.143  20.125  -2.054  0.00  0.00    -0.027 A 
HETATM   28  C   UNK     0     -39.334  18.711  -3.257  0.00  0.00     0.115 C 
HETATM   29  H   UNK     0     -40.013  16.958  -0.989  0.00  0.00     0.165 HD
HETATM   30  H   UNK     0     -39.967  19.031   1.696  0.00  0.00     0.165 HD
HETATM   31  H   UNK     0     -37.734  19.304   1.371  0.00  0.00     0.165 HD
HETATM   32  H   UNK     0     -37.701  17.292  -1.256  0.00  0.00     0.165 HD
ENDROOT
BRANCH   6  33
HETATM   33  C   UNK     0     -43.622  20.046  -0.945  0.00  0.00     0.051 C 
BRANCH  33  34
HETATM   34  C   UNK     0     -44.669  19.818  -2.010  0.00  0.00     0.114 C 
BRANCH  34  35
HETATM   35  C   UNK     0     -45.273  18.477  -1.764  0.00  0.00     0.139 C 
HETATM   36  O   UNK     0     -45.566  18.118  -0.586  0.00  0.00    -0.650 OA
BRANCH  35  37
HETATM   37  O   UNK     0     -45.541  17.576  -2.787  0.00  0.00    -0.776 OA
HETATM   38  H   UNK     0     -46.352  17.664  -3.378  0.00  0.00     0.167 HD
ENDBRANCH  35  37
ENDBRANCH  34  35
ENDBRANCH  33  34
ENDBRANCH   6  33
BRANCH  27  39
HETATM   39  C   UNK     0     -35.075  21.160  -2.113  0.00  0.00     0.051 C 
BRANCH  39  40
HETATM   40  C   UNK     0     -33.750  20.764  -2.589  0.00  0.00     0.114 C 
BRANCH  40  41
HETATM   41  C   UNK     0     -33.569  19.908  -3.740  0.00  0.00     0.139 C 
HETATM   42  O   UNK     0     -33.429  20.334  -4.894  0.00  0.00    -0.650 OA
BRANCH  41  43
HETATM   43  O   UNK     0     -33.548  18.496  -3.555  0.00  0.00    -0.776 OA
HETATM   44  H   UNK     0     -33.992  17.969  -4.297  0.00  0.00     0.167 HD
ENDBRANCH  41  43
ENDBRANCH  40  41
ENDBRANCH  39  40
ENDBRANCH  27  39
BRANCH  11  45
HETATM   45  C   UNK     0     -40.173  15.248   4.550  0.00  0.00     0.051 C 
BRANCH  45  46
HETATM   46  C   UNK     0     -39.178  14.217   4.159  0.00  0.00     0.114 C 
BRANCH  46  47
HETATM   47  C   UNK     0     -39.797  12.885   4.417  0.00  0.00     0.139 C 
HETATM   48  O   UNK     0     -41.032  12.809   4.479  0.00  0.00    -0.650 OA
BRANCH  47  49
HETATM   49  O   UNK     0     -39.018  11.768   4.582  0.00  0.00    -0.776 OA
HETATM   50  H   UNK     0     -38.045  11.729   4.258  0.00  0.00     0.167 HD
ENDBRANCH  47  49
ENDBRANCH  46  47
ENDBRANCH  45  46
ENDBRANCH  11  45
BRANCH  18  51
HETATM   51  C   UNK     0     -33.933  16.504   1.678  0.00  0.00     0.051 C 
BRANCH  51  52
HETATM   52  C   UNK     0     -34.234  15.252   0.867  0.00  0.00     0.114 C 
BRANCH  52  53
HETATM   53  C   UNK     0     -33.372  14.121   1.261  0.00  0.00     0.139 C 
HETATM   54  O   UNK     0     -33.873  13.012   1.502  0.00  0.00    -0.650 OA
BRANCH  53  55
HETATM   55  O   UNK     0     -32.014  14.306   1.364  0.00  0.00    -0.776 OA
HETATM   56  H   UNK     0     -31.376  13.700   1.823  0.00  0.00     0.167 HD
ENDBRANCH  53  55
ENDBRANCH  52  53
ENDBRANCH  51  52
ENDBRANCH  18  51
TORSDOF 16
ENDMDL
MODEL 3
REMARK VINA RESULT:      -8.6      9.435     13.688
REMARK  16 active torsions:
REMARK  status: ('A' for Active; 'I' for Inactive)
REMARK    1  A    between atoms: C_6  and  C_7 
REMARK    2  A    between atoms: C_7  and  C_8 
REMARK    3  A    between atoms: C_8  and  C_9 
REMARK    4  A    between atoms: C_9  and  O_11 
REMARK    5  A    between atoms: C_16  and  C_17 
REMARK    6  A    between atoms: C_17  and  C_18 
REMARK    7  A    between atoms: C_18  and  C_19 
REMARK    8  A    between atoms: C_19  and  O_21 
REMARK    9  A    between atoms: C_28  and  C_29 
REMARK   10  A    between atoms: C_29  and  C_30 
REMARK   11  A    between atoms: C_30  and  C_31 
REMARK   12  A    between atoms: C_31  and  O_33 
REMARK   13  A    between atoms: C_42  and  C_43 
REMARK   14  A    between atoms: C_43  and  C_44 
REMARK   15  A    between atoms: C_44  and  C_45 
REMARK   16  A    between atoms: C_45  and  O_47 
ROOT
HETATM    1  C   UNK     0     -40.259  21.002  -3.655  0.00  0.00     0.051 C 
HETATM    2  C   UNK     0     -40.221  19.882  -2.635  0.00  0.00    -0.031 A 
HETATM    3  C   UNK     0     -39.334  18.823  -2.524  0.00  0.00     0.021 A 
HETATM    4  N   UNK     0     -39.703  18.047  -1.477  0.00  0.00    -0.361 N 
HETATM    5  C   UNK     0     -40.800  18.593  -0.913  0.00  0.00     0.022 A 
HETATM    6  C   UNK     0     -41.153  19.741  -1.615  0.00  0.00    -0.027 A 
HETATM    7  C   UNK     0     -41.542  18.181   0.319  0.00  0.00     0.115 C 
HETATM    8  C   UNK     0     -40.701  17.780   1.519  0.00  0.00     0.021 A 
HETATM    9  N   UNK     0     -39.527  18.288   1.924  0.00  0.00    -0.361 N 
HETATM   10  C   UNK     0     -39.101  17.565   2.982  0.00  0.00     0.022 A 
HETATM   11  C   UNK     0     -40.031  16.571   3.271  0.00  0.00    -0.027 A 
HETATM   12  C   UNK     0     -41.042  16.701   2.353  0.00  0.00    -0.031 A 
HETATM   13  C   UNK     0     -42.278  15.832   2.285  0.00  0.00     0.051 C 
HETATM   14  C   UNK     0     -37.781  17.748   3.725  0.00  0.00     0.115 C 
HETATM   15  C   UNK     0     -36.551  17.547   2.855  0.00  0.00     0.021 A 
HETATM   16  N   UNK     0     -36.218  18.218   1.736  0.00  0.00    -0.361 N 
HETATM   17  C   UNK     0     -35.100  17.694   1.228  0.00  0.00     0.022 A 
HETATM   18  C   UNK     0     -34.679  16.638   2.060  0.00  0.00    -0.027 A 
HETATM   19  C   UNK     0     -35.596  16.557   3.076  0.00  0.00    -0.031 A 
HETATM   20  C   UNK     0     -35.499  15.566   4.222  0.00  0.00     0.051 C 
HETATM   21  C   UNK     0     -34.358  18.036  -0.044  0.00  0.00     0.115 C 
HETATM   22  C   UNK     0     -35.179  18.480  -1.233  0.00  0.00     0.022 A 
HETATM   23  N   UNK     0     -36.353  17.995  -1.657  0.00  0.00    -0.361 N 
HETATM   24  C   UNK     0     -36.796  18.779  -2.661  0.00  0.00     0.021 A 
HETATM   25  C   UNK     0     -35.879  19.786  -2.896  0.00  0.00    -0.031 A 
HETATM   26  C   UNK     0     -35.912  20.880  -3.942  0.00  0.00     0.051 C 
HETATM   27  C   UNK     0     -34.835  19.615  -1.994  0.00  0.00    -0.027 A 
HETATM   28  C   UNK     0     -38.120  18.685  -3.399  0.00  0.00     0.115 C 
HETATM   29  H   UNK     0     -39.208  17.097  -1.168  0.00  0.00     0.165 HD
HETATM   30  H   UNK     0     -39.020  19.188   1.498  0.00  0.00     0.165 HD
HETATM   31  H   UNK     0     -36.755  19.110   1.322  0.00  0.00     0.165 HD
HETATM   32  H   UNK     0     -36.860  17.069  -1.281  0.00  0.00     0.165 HD
ENDROOT
BRANCH   6  33
HETATM   33  C   UNK     0     -42.295  20.701  -1.393  0.00  0.00     0.051 C 
BRANCH  33  34
HETATM   34  C   UNK     0     -43.398  20.460  -2.396  0.00  0.00     0.114 C 
BRANCH  34  35
HETATM   35  C   UNK     0     -44.247  19.353  -1.868  0.00  0.00     0.139 C 
HETATM   36  O   UNK     0     -44.942  19.525  -0.824  0.00  0.00    -0.650 OA
BRANCH  35  37
HETATM   37  O   UNK     0     -44.320  18.107  -2.479  0.00  0.00    -0.776 OA
HETATM   38  H   UNK     0     -44.135  17.254  -1.977  0.00  0.00     0.167 HD
ENDBRANCH  35  37
ENDBRANCH  34  35
ENDBRANCH  33  34
ENDBRANCH   6  33
BRANCH  27  39
HETATM   39  C   UNK     0     -33.620  20.474  -1.989  0.00  0.00     0.051 C 
BRANCH  39  40
HETATM   40  C   UNK     0     -33.503  21.507  -0.960  0.00  0.00     0.114 C 
BRANCH  40  41
HETATM   41  C   UNK     0     -33.039  21.214   0.377  0.00  0.00     0.139 C 
HETATM   42  O   UNK     0     -33.678  21.497   1.400  0.00  0.00    -0.650 OA
BRANCH  41  43
HETATM   43  O   UNK     0     -31.782  20.567   0.546  0.00  0.00    -0.776 OA
HETATM   44  H   UNK     0     -31.291  20.820   1.395  0.00  0.00     0.167 HD
ENDBRANCH  41  43
ENDBRANCH  40  41
ENDBRANCH  39  40
ENDBRANCH  27  39
BRANCH  11  45
HETATM   45  C   UNK     0     -39.992  15.533   4.361  0.00  0.00     0.051 C 
BRANCH  45  46
HETATM   46  C   UNK     0     -39.263  14.293   3.992  0.00  0.00     0.114 C 
BRANCH  46  47
HETATM   47  C   UNK     0     -39.886  13.172   4.753  0.00  0.00     0.139 C 
HETATM   48  O   UNK     0     -40.375  13.411   5.865  0.00  0.00    -0.650 OA
BRANCH  47  49
HETATM   49  O   UNK     0     -39.915  11.902   4.234  0.00  0.00    -0.776 OA
HETATM   50  H   UNK     0     -40.568  11.633   3.488  0.00  0.00     0.167 HD
ENDBRANCH  47  49
ENDBRANCH  46  47
ENDBRANCH  45  46
ENDBRANCH  11  45
BRANCH  18  51
HETATM   51  C   UNK     0     -33.459  15.768   1.907  0.00  0.00     0.051 C 
BRANCH  51  52
HETATM   52  C   UNK     0     -33.896  14.560   1.093  0.00  0.00     0.114 C 
BRANCH  52  53
HETATM   53  C   UNK     0     -33.295  13.310   1.597  0.00  0.00     0.139 C 
HETATM   54  O   UNK     0     -33.981  12.278   1.676  0.00  0.00    -0.650 OA
BRANCH  53  55
HETATM   55  O   UNK     0     -31.977  13.297   1.981  0.00  0.00    -0.776 OA
HETATM   56  H   UNK     0     -31.192  13.387   1.380  0.00  0.00     0.167 HD
ENDBRANCH  53  55
ENDBRANCH  52  53
ENDBRANCH  51  52
ENDBRANCH  18  51
TORSDOF 16
ENDMDL
MODEL 4
REMARK VINA RESULT:      -8.0     10.252     16.023
REMARK  16 active torsions:
REMARK  status: ('A' for Active; 'I' for Inactive)
REMARK    1  A    between atoms: C_6  and  C_7 
REMARK    2  A    between atoms: C_7  and  C_8 
REMARK    3  A    between atoms: C_8  and  C_9 
REMARK    4  A    between atoms: C_9  and  O_11 
REMARK    5  A    between atoms: C_16  and  C_17 
REMARK    6  A    between atoms: C_17  and  C_18 
REMARK    7  A    between atoms: C_18  and  C_19 
REMARK    8  A    between atoms: C_19  and  O_21 
REMARK    9  A    between atoms: C_28  and  C_29 
REMARK   10  A    between atoms: C_29  and  C_30 
REMARK   11  A    between atoms: C_30  and  C_31 
REMARK   12  A    between atoms: C_31  and  O_33 
REMARK   13  A    between atoms: C_42  and  C_43 
REMARK   14  A    between atoms: C_43  and  C_44 
REMARK   15  A    between atoms: C_44  and  C_45 
REMARK   16  A    between atoms: C_45  and  O_47 
ROOT
HETATM    1  C   UNK     0     -39.948  15.960   4.068  0.00  0.00     0.051 C 
HETATM    2  C   UNK     0     -39.943  17.036   3.003  0.00  0.00    -0.031 A 
HETATM    3  C   UNK     0     -39.002  18.023   2.753  0.00  0.00     0.021 A 
HETATM    4  N   UNK     0     -39.426  18.786   1.718  0.00  0.00    -0.361 N 
HETATM    5  C   UNK     0     -40.612  18.302   1.296  0.00  0.00     0.022 A 
HETATM    6  C   UNK     0     -40.967  17.209   2.080  0.00  0.00    -0.027 A 
HETATM    7  C   UNK     0     -41.453  18.723   0.131  0.00  0.00     0.115 C 
HETATM    8  C   UNK     0     -40.720  19.018  -1.166  0.00  0.00     0.021 A 
HETATM    9  N   UNK     0     -39.635  18.411  -1.670  0.00  0.00    -0.361 N 
HETATM   10  C   UNK     0     -39.276  19.062  -2.797  0.00  0.00     0.022 A 
HETATM   11  C   UNK     0     -40.160  20.111  -3.030  0.00  0.00    -0.027 A 
HETATM   12  C   UNK     0     -41.072  20.089  -2.006  0.00  0.00    -0.031 A 
HETATM   13  C   UNK     0     -42.230  21.048  -1.847  0.00  0.00     0.051 C 
HETATM   14  C   UNK     0     -38.059  18.755  -3.666  0.00  0.00     0.115 C 
HETATM   15  C   UNK     0     -36.732  18.896  -2.938  0.00  0.00     0.021 A 
HETATM   16  N   UNK     0     -36.327  18.243  -1.833  0.00  0.00    -0.361 N 
HETATM   17  C   UNK     0     -35.127  18.700  -1.468  0.00  0.00     0.022 A 
HETATM   18  C   UNK     0     -34.726  19.692  -2.385  0.00  0.00    -0.027 A 
HETATM   19  C   UNK     0     -35.739  19.805  -3.302  0.00  0.00    -0.031 A 
HETATM   20  C   UNK     0     -35.698  20.743  -4.493  0.00  0.00     0.051 C 
HETATM   21  C   UNK     0     -34.279  18.351  -0.266  0.00  0.00     0.115 C 
HETATM   22  C   UNK     0     -34.995  18.012   1.019  0.00  0.00     0.022 A 
HETATM   23  N   UNK     0     -36.081  18.597   1.544  0.00  0.00    -0.361 N 
HETATM   24  C   UNK     0     -36.466  17.885   2.622  0.00  0.00     0.021 A 
HETATM   25  C   UNK     0     -35.602  16.822   2.802  0.00  0.00    -0.031 A 
HETATM   26  C   UNK     0     -35.598  15.771   3.893  0.00  0.00     0.051 C 
HETATM   27  C   UNK     0     -34.652  16.882   1.789  0.00  0.00    -0.027 A 
HETATM   28  C   UNK     0     -37.694  18.103   3.489  0.00  0.00     0.115 C 
HETATM   29  H   UNK     0     -38.903  19.685   1.318  0.00  0.00     0.165 HD
HETATM   30  H   UNK     0     -39.149  17.492  -1.260  0.00  0.00     0.165 HD
HETATM   31  H   UNK     0     -36.878  17.408  -1.326  0.00  0.00     0.165 HD
HETATM   32  H   UNK     0     -36.560  19.544   1.182  0.00  0.00     0.165 HD
ENDROOT
BRANCH   6  33
HETATM   33  C   UNK     0     -42.190  16.329   2.022  0.00  0.00     0.051 C 
BRANCH  33  34
HETATM   34  C   UNK     0     -43.188  16.729   3.082  0.00  0.00     0.114 C 
BRANCH  34  35
HETATM   35  C   UNK     0     -43.979  17.873   2.543  0.00  0.00     0.139 C 
HETATM   36  O   UNK     0     -44.202  18.889   3.263  0.00  0.00    -0.650 OA
BRANCH  35  37
HETATM   37  O   UNK     0     -44.496  17.884   1.254  0.00  0.00    -0.776 OA
HETATM   38  H   UNK     0     -43.940  18.147   0.456  0.00  0.00     0.167 HD
ENDBRANCH  35  37
ENDBRANCH  34  35
ENDBRANCH  33  34
ENDBRANCH   6  33
BRANCH  27  39
HETATM   39  C   UNK     0     -33.507  15.937   1.695  0.00  0.00     0.051 C 
BRANCH  39  40
HETATM   40  C   UNK     0     -33.712  14.665   1.002  0.00  0.00     0.114 C 
BRANCH  40  41
HETATM   41  C   UNK     0     -33.307  13.401   1.575  0.00  0.00     0.139 C 
HETATM   42  O   UNK     0     -33.936  12.346   1.418  0.00  0.00    -0.650 OA
BRANCH  41  43
HETATM   43  O   UNK     0     -32.124  13.349   2.366  0.00  0.00    -0.776 OA
HETATM   44  H   UNK     0     -31.964  12.459   2.823  0.00  0.00     0.167 HD
ENDBRANCH  41  43
ENDBRANCH  40  41
ENDBRANCH  39  40
ENDBRANCH  27  39
BRANCH  11  45
HETATM   45  C   UNK     0     -40.166  21.103  -4.162  0.00  0.00     0.051 C 
BRANCH  45  46
HETATM   46  C   UNK     0     -40.786  20.592  -5.412  0.00  0.00     0.114 C 
BRANCH  46  47
HETATM   47  C   UNK     0     -39.693  20.437  -6.414  0.00  0.00     0.139 C 
HETATM   48  O   UNK     0     -38.716  21.195  -6.347  0.00  0.00    -0.650 OA
BRANCH  47  49
HETATM   49  O   UNK     0     -39.767  19.477  -7.392  0.00  0.00    -0.776 OA
HETATM   50  H   UNK     0     -39.733  19.712  -8.391  0.00  0.00     0.167 HD
ENDBRANCH  47  49
ENDBRANCH  46  47
ENDBRANCH  45  46
ENDBRANCH  11  45
BRANCH  18  51
HETATM   51  C   UNK     0     -33.439  20.475  -2.399  0.00  0.00     0.051 C 
BRANCH  51  52
HETATM   52  C   UNK     0     -33.737  21.797  -1.708  0.00  0.00     0.114 C 
BRANCH  52  53
HETATM   53  C   UNK     0     -33.325  21.783  -0.291  0.00  0.00     0.139 C 
HETATM   54  O   UNK     0     -32.119  21.780   0.005  0.00  0.00    -0.650 OA
BRANCH  53  55
HETATM   55  O   UNK     0     -34.281  21.769   0.695  0.00  0.00    -0.776 OA
HETATM   56  H   UNK     0     -34.299  21.165   1.482  0.00  0.00     0.167 HD
ENDBRANCH  53  55
ENDBRANCH  52  53
ENDBRANCH  51  52
ENDBRANCH  18  51
TORSDOF 16
ENDMDL
MODEL 5
REMARK VINA RESULT:      -8.0     16.693     20.452
REMARK  16 active torsions:
REMARK  status: ('A' for Active; 'I' for Inactive)
REMARK    1  A    between atoms: C_6  and  C_7 
REMARK    2  A    between atoms: C_7  and  C_8 
REMARK    3  A    between atoms: C_8  and  C_9 
REMARK    4  A    between atoms: C_9  and  O_11 
REMARK    5  A    between atoms: C_16  and  C_17 
REMARK    6  A    between atoms: C_17  and  C_18 
REMARK    7  A    between atoms: C_18  and  C_19 
REMARK    8  A    between atoms: C_19  and  O_21 
REMARK    9  A    between atoms: C_28  and  C_29 
REMARK   10  A    between atoms: C_29  and  C_30 
REMARK   11  A    between atoms: C_30  and  C_31 
REMARK   12  A    between atoms: C_31  and  O_33 
REMARK   13  A    between atoms: C_42  and  C_43 
REMARK   14  A    between atoms: C_43  and  C_44 
REMARK   15  A    between atoms: C_44  and  C_45 
REMARK   16  A    between atoms: C_45  and  O_47 
ROOT
HETATM    1  C   UNK     0     -49.023  19.804   9.347  0.00  0.00     0.051 C 
HETATM    2  C   UNK     0     -50.082  19.326   8.373  0.00  0.00    -0.031 A 
HETATM    3  C   UNK     0     -50.356  19.764   7.087  0.00  0.00     0.021 A 
HETATM    4  N   UNK     0     -51.413  19.072   6.601  0.00  0.00    -0.361 N 
HETATM    5  C   UNK     0     -51.814  18.196   7.546  0.00  0.00     0.022 A 
HETATM    6  C   UNK     0     -51.004  18.331   8.669  0.00  0.00    -0.027 A 
HETATM    7  C   UNK     0     -52.873  17.140   7.478  0.00  0.00     0.115 C 
HETATM    8  C   UNK     0     -52.939  16.323   6.200  0.00  0.00     0.021 A 
HETATM    9  N   UNK     0     -51.929  15.910   5.418  0.00  0.00    -0.361 N 
HETATM   10  C   UNK     0     -52.459  15.293   4.341  0.00  0.00     0.022 A 
HETATM   11  C   UNK     0     -53.847  15.300   4.436  0.00  0.00    -0.027 A 
HETATM   12  C   UNK     0     -54.156  15.947   5.605  0.00  0.00    -0.031 A 
HETATM   13  C   UNK     0     -55.555  16.188   6.127  0.00  0.00     0.051 C 
HETATM   14  C   UNK     0     -51.682  14.722   3.158  0.00  0.00     0.115 C 
HETATM   15  C   UNK     0     -50.868  15.757   2.398  0.00  0.00     0.021 A 
HETATM   16  N   UNK     0     -49.894  16.551   2.880  0.00  0.00    -0.361 N 
HETATM   17  C   UNK     0     -49.477  17.370   1.912  0.00  0.00     0.022 A 
HETATM   18  C   UNK     0     -50.207  17.089   0.740  0.00  0.00    -0.027 A 
HETATM   19  C   UNK     0     -51.074  16.076   1.057  0.00  0.00    -0.031 A 
HETATM   20  C   UNK     0     -52.029  15.440   0.063  0.00  0.00     0.051 C 
HETATM   21  C   UNK     0     -48.461  18.489   1.957  0.00  0.00     0.115 C 
HETATM   22  C   UNK     0     -48.354  19.283   3.238  0.00  0.00     0.022 A 
HETATM   23  N   UNK     0     -49.342  19.704   4.038  0.00  0.00    -0.361 N 
HETATM   24  C   UNK     0     -48.790  20.246   5.143  0.00  0.00     0.021 A 
HETATM   25  C   UNK     0     -47.413  20.182   5.046  0.00  0.00    -0.031 A 
HETATM   26  C   UNK     0     -46.365  20.694   6.011  0.00  0.00     0.051 C 
HETATM   27  C   UNK     0     -47.110  19.570   3.835  0.00  0.00    -0.027 A 
HETATM   28  C   UNK     0     -49.504  20.776   6.374  0.00  0.00     0.115 C 
HETATM   29  H   UNK     0     -51.894  19.234   5.609  0.00  0.00     0.165 HD
HETATM   30  H   UNK     0     -50.840  16.009   5.649  0.00  0.00     0.165 HD
HETATM   31  H   UNK     0     -49.459  16.502   3.912  0.00  0.00     0.165 HD
HETATM   32  H   UNK     0     -50.439  19.661   3.812  0.00  0.00     0.165 HD
ENDROOT
BRANCH   6  33
HETATM   33  C   UNK     0     -51.042  17.597   9.985  0.00  0.00     0.051 C 
BRANCH  33  34
HETATM   34  C   UNK     0     -50.437  16.219   9.847  0.00  0.00     0.114 C 
BRANCH  34  35
HETATM   35  C   UNK     0     -51.448  15.237  10.336  0.00  0.00     0.139 C 
HETATM   36  O   UNK     0     -51.156  14.009  10.414  0.00  0.00    -0.650 OA
BRANCH  35  37
HETATM   37  O   UNK     0     -52.729  15.611  10.724  0.00  0.00    -0.776 OA
HETATM   38  H   UNK     0     -52.891  16.294  11.446  0.00  0.00     0.167 HD
ENDBRANCH  35  37
ENDBRANCH  34  35
ENDBRANCH  33  34
ENDBRANCH   6  33
BRANCH  27  39
HETATM   39  C   UNK     0     -45.717  19.388   3.345  0.00  0.00     0.051 C 
BRANCH  39  40
HETATM   40  C   UNK     0     -45.047  18.116   3.614  0.00  0.00     0.114 C 
BRANCH  40  41
HETATM   41  C   UNK     0     -44.010  17.988   4.613  0.00  0.00     0.139 C 
HETATM   42  O   UNK     0     -42.822  18.274   4.407  0.00  0.00    -0.650 OA
BRANCH  41  43
HETATM   43  O   UNK     0     -44.354  17.509   5.909  0.00  0.00    -0.776 OA
HETATM   44  H   UNK     0     -43.585  17.089   6.418  0.00  0.00     0.167 HD
ENDBRANCH  41  43
ENDBRANCH  40  41
ENDBRANCH  39  40
ENDBRANCH  27  39
BRANCH  11  45
HETATM   45  C   UNK     0     -54.859  14.726   3.481  0.00  0.00     0.051 C 
BRANCH  45  46
HETATM   46  C   UNK     0     -55.574  13.533   4.001  0.00  0.00     0.114 C 
BRANCH  46  47
HETATM   47  C   UNK     0     -54.615  12.392   3.964  0.00  0.00     0.139 C 
HETATM   48  O   UNK     0     -54.208  11.996   2.862  0.00  0.00    -0.650 OA
BRANCH  47  49
HETATM   49  O   UNK     0     -54.191  11.792   5.122  0.00  0.00    -0.776 OA
HETATM   50  H   UNK     0     -53.330  11.235   5.165  0.00  0.00     0.167 HD
ENDBRANCH  47  49
ENDBRANCH  46  47
ENDBRANCH  45  46
ENDBRANCH  11  45
BRANCH  18  51
HETATM   51  C   UNK     0     -50.070  17.736  -0.614  0.00  0.00     0.051 C 
BRANCH  51  52
HETATM   52  C   UNK     0     -48.912  17.034  -1.307  0.00  0.00     0.114 C 
BRANCH  52  53
HETATM   53  C   UNK     0     -49.303  16.501  -2.626  0.00  0.00     0.139 C 
HETATM   54  O   UNK     0     -50.487  16.563  -2.996  0.00  0.00    -0.650 OA
BRANCH  53  55
HETATM   55  O   UNK     0     -48.352  15.933  -3.439  0.00  0.00    -0.776 OA
HETATM   56  H   UNK     0     -47.671  15.266  -3.163  0.00  0.00     0.167 HD
ENDBRANCH  53  55
ENDBRANCH  52  53
ENDBRANCH  51  52
ENDBRANCH  18  51
TORSDOF 16
ENDMDL
MODEL 6
REMARK VINA RESULT:      -8.0     11.354     15.625
REMARK  16 active torsions:
REMARK  status: ('A' for Active; 'I' for Inactive)
REMARK    1  A    between atoms: C_6  and  C_7 
REMARK    2  A    between atoms: C_7  and  C_8 
REMARK    3  A    between atoms: C_8  and  C_9 
REMARK    4  A    between atoms: C_9  and  O_11 
REMARK    5  A    between atoms: C_16  and  C_17 
REMARK    6  A    between atoms: C_17  and  C_18 
REMARK    7  A    between atoms: C_18  and  C_19 
REMARK    8  A    between atoms: C_19  and  O_21 
REMARK    9  A    between atoms: C_28  and  C_29 
REMARK   10  A    between atoms: C_29  and  C_30 
REMARK   11  A    between atoms: C_30  and  C_31 
REMARK   12  A    between atoms: C_31  and  O_33 
REMARK   13  A    between atoms: C_42  and  C_43 
REMARK   14  A    between atoms: C_43  and  C_44 
REMARK   15  A    between atoms: C_44  and  C_45 
REMARK   16  A    between atoms: C_45  and  O_47 
ROOT
HETATM    1  C   UNK     0     -44.626  19.679  -0.428  0.00  0.00     0.051 C 
HETATM    2  C   UNK     0     -43.394  18.931   0.042  0.00  0.00    -0.031 A 
HETATM    3  C   UNK     0     -42.434  18.264  -0.701  0.00  0.00     0.021 A 
HETATM    4  N   UNK     0     -41.527  17.714   0.141  0.00  0.00    -0.361 N 
HETATM    5  C   UNK     0     -41.885  18.023   1.405  0.00  0.00     0.022 A 
HETATM    6  C   UNK     0     -43.050  18.782   1.379  0.00  0.00    -0.027 A 
HETATM    7  C   UNK     0     -41.175  17.740   2.692  0.00  0.00     0.115 C 
HETATM    8  C   UNK     0     -39.670  17.944   2.699  0.00  0.00     0.021 A 
HETATM    9  N   UNK     0     -38.950  18.876   2.056  0.00  0.00    -0.361 N 
HETATM   10  C   UNK     0     -37.642  18.622   2.277  0.00  0.00     0.022 A 
HETATM   11  C   UNK     0     -37.518  17.501   3.093  0.00  0.00    -0.027 A 
HETATM   12  C   UNK     0     -38.791  17.069   3.363  0.00  0.00    -0.031 A 
HETATM   13  C   UNK     0     -39.147  15.876   4.222  0.00  0.00     0.051 C 
HETATM   14  C   UNK     0     -36.463  19.389   1.688  0.00  0.00     0.115 C 
HETATM   15  C   UNK     0     -36.404  19.357   0.169  0.00  0.00     0.021 A 
HETATM   16  N   UNK     0     -37.341  19.781  -0.699  0.00  0.00    -0.361 N 
HETATM   17  C   UNK     0     -36.940  19.514  -1.943  0.00  0.00     0.022 A 
HETATM   18  C   UNK     0     -35.676  18.894  -1.885  0.00  0.00    -0.027 A 
HETATM   19  C   UNK     0     -35.351  18.803  -0.556  0.00  0.00    -0.031 A 
HETATM   20  C   UNK     0     -34.043  18.225  -0.045  0.00  0.00     0.051 C 
HETATM   21  C   UNK     0     -37.653  19.723  -3.260  0.00  0.00     0.115 C 
HETATM   22  C   UNK     0     -39.155  19.566  -3.273  0.00  0.00     0.022 A 
HETATM   23  N   UNK     0     -39.899  18.651  -2.639  0.00  0.00    -0.361 N 
HETATM   24  C   UNK     0     -41.198  18.969  -2.809  0.00  0.00     0.021 A 
HETATM   25  C   UNK     0     -41.293  20.111  -3.580  0.00  0.00    -0.031 A 
HETATM   26  C   UNK     0     -42.533  20.830  -4.072  0.00  0.00     0.051 C 
HETATM   27  C   UNK     0     -39.998  20.512  -3.890  0.00  0.00    -0.027 A 
HETATM   28  C   UNK     0     -42.411  18.283  -2.204  0.00  0.00     0.115 C 
HETATM   29  H   UNK     0     -40.663  17.077  -0.161  0.00  0.00     0.165 HD
HETATM   30  H   UNK     0     -39.362  19.744   1.485  0.00  0.00     0.165 HD
HETATM   31  H   UNK     0     -38.285  20.324  -0.430  0.00  0.00     0.165 HD
HETATM   32  H   UNK     0     -39.515  17.745  -2.100  0.00  0.00     0.165 HD
ENDROOT
BRANCH   6  33
HETATM   33  C   UNK     0     -43.853  19.366   2.514  0.00  0.00     0.051 C 
BRANCH  33  34
HETATM   34  C   UNK     0     -44.702  18.304   3.171  0.00  0.00     0.114 C 
BRANCH  34  35
HETATM   35  C   UNK     0     -44.333  18.267   4.615  0.00  0.00     0.139 C 
HETATM   36  O   UNK     0     -43.590  19.165   5.106  0.00  0.00    -0.650 OA
BRANCH  35  37
HETATM   37  O   UNK     0     -44.777  17.271   5.477  0.00  0.00    -0.776 OA
HETATM   38  H   UNK     0     -44.370  16.349   5.483  0.00  0.00     0.167 HD
ENDBRANCH  35  37
ENDBRANCH  34  35
ENDBRANCH  33  34
ENDBRANCH   6  33
BRANCH  27  39
HETATM   39  C   UNK     0     -39.698  21.673  -4.771  0.00  0.00     0.051 C 
BRANCH  39  40
HETATM   40  C   UNK     0     -39.327  21.411  -6.162  0.00  0.00     0.114 C 
BRANCH  40  41
HETATM   41  C   UNK     0     -40.154  20.617  -7.043  0.00  0.00     0.139 C 
HETATM   42  O   UNK     0     -41.266  20.981  -7.449  0.00  0.00    -0.650 OA
BRANCH  41  43
HETATM   43  O   UNK     0     -39.680  19.347  -7.478  0.00  0.00    -0.776 OA
HETATM   44  H   UNK     0     -38.748  19.115  -7.155  0.00  0.00     0.167 HD
ENDBRANCH  41  43
ENDBRANCH  40  41
ENDBRANCH  39  40
ENDBRANCH  27  39
BRANCH  11  45
HETATM   45  C   UNK     0     -36.265  16.848   3.612  0.00  0.00     0.051 C 
BRANCH  45  46
HETATM   46  C   UNK     0     -35.468  16.152   2.569  0.00  0.00     0.114 C 
BRANCH  46  47
HETATM   47  C   UNK     0     -34.254  15.601   3.236  0.00  0.00     0.139 C 
HETATM   48  O   UNK     0     -34.249  14.406   3.565  0.00  0.00    -0.650 OA
BRANCH  47  49
HETATM   49  O   UNK     0     -33.165  16.398   3.484  0.00  0.00    -0.776 OA
HETATM   50  H   UNK     0     -32.328  16.045   3.963  0.00  0.00     0.167 HD
ENDBRANCH  47  49
ENDBRANCH  46  47
ENDBRANCH  45  46
ENDBRANCH  11  45
BRANCH  18  51
HETATM   51  C   UNK     0     -34.816  18.434  -3.033  0.00  0.00     0.051 C 
BRANCH  51  52
HETATM   52  C   UNK     0     -33.726  19.483  -3.196  0.00  0.00     0.114 C 
BRANCH  52  53
HETATM   53  C   UNK     0     -34.156  20.590  -4.073  0.00  0.00     0.139 C 
HETATM   54  O   UNK     0     -33.884  21.763  -3.773  0.00  0.00    -0.650 OA
BRANCH  53  55
HETATM   55  O   UNK     0     -34.861  20.313  -5.220  0.00  0.00    -0.776 OA
HETATM   56  H   UNK     0     -35.779  20.627  -5.431  0.00  0.00     0.167 HD
ENDBRANCH  53  55
ENDBRANCH  52  53
ENDBRANCH  51  52
ENDBRANCH  18  51
TORSDOF 16
ENDMDL
MODEL 7
REMARK VINA RESULT:      -7.9     15.559     18.500
REMARK  16 active torsions:
REMARK  status: ('A' for Active; 'I' for Inactive)
REMARK    1  A    between atoms: C_6  and  C_7 
REMARK    2  A    between atoms: C_7  and  C_8 
REMARK    3  A    between atoms: C_8  and  C_9 
REMARK    4  A    between atoms: C_9  and  O_11 
REMARK    5  A    between atoms: C_16  and  C_17 
REMARK    6  A    between atoms: C_17  and  C_18 
REMARK    7  A    between atoms: C_18  and  C_19 
REMARK    8  A    between atoms: C_19  and  O_21 
REMARK    9  A    between atoms: C_28  and  C_29 
REMARK   10  A    between atoms: C_29  and  C_30 
REMARK   11  A    between atoms: C_30  and  C_31 
REMARK   12  A    between atoms: C_31  and  O_33 
REMARK   13  A    between atoms: C_42  and  C_43 
REMARK   14  A    between atoms: C_43  and  C_44 
REMARK   15  A    between atoms: C_44  and  C_45 
REMARK   16  A    between atoms: C_45  and  O_47 
ROOT
HETATM    1  C   UNK     0     -24.681  23.725   9.879  0.00  0.00     0.051 C 
HETATM    2  C   UNK     0     -24.186  22.504  10.627  0.00  0.00    -0.031 A 
HETATM    3  C   UNK     0     -24.670  21.930  11.792  0.00  0.00     0.021 A 
HETATM    4  N   UNK     0     -23.896  20.866  12.114  0.00  0.00    -0.361 N 
HETATM    5  C   UNK     0     -22.935  20.745  11.176  0.00  0.00     0.022 A 
HETATM    6  C   UNK     0     -23.085  21.755  10.231  0.00  0.00    -0.027 A 
HETATM    7  C   UNK     0     -21.889  19.686  11.015  0.00  0.00     0.115 C 
HETATM    8  C   UNK     0     -22.331  18.251  11.244  0.00  0.00     0.021 A 
HETATM    9  N   UNK     0     -23.508  17.681  10.945  0.00  0.00    -0.361 N 
HETATM   10  C   UNK     0     -23.491  16.414  11.410  0.00  0.00     0.022 A 
HETATM   11  C   UNK     0     -22.265  16.158  12.017  0.00  0.00    -0.027 A 
HETATM   12  C   UNK     0     -21.529  17.311  11.916  0.00  0.00    -0.031 A 
HETATM   13  C   UNK     0     -20.121  17.498  12.435  0.00  0.00     0.051 C 
HETATM   14  C   UNK     0     -24.643  15.416  11.348  0.00  0.00     0.115 C 
HETATM   15  C   UNK     0     -25.891  15.869  12.090  0.00  0.00     0.021 A 
HETATM   16  N   UNK     0     -26.613  16.985  11.877  0.00  0.00    -0.361 N 
HETATM   17  C   UNK     0     -27.591  17.054  12.783  0.00  0.00     0.022 A 
HETATM   18  C   UNK     0     -27.508  15.924  13.621  0.00  0.00    -0.027 A 
HETATM   19  C   UNK     0     -26.440  15.189  13.175  0.00  0.00    -0.031 A 
HETATM   20  C   UNK     0     -26.016  13.864  13.781  0.00  0.00     0.051 C 
HETATM   21  C   UNK     0     -28.622  18.134  13.019  0.00  0.00     0.115 C 
HETATM   22  C   UNK     0     -28.209  19.563  12.754  0.00  0.00     0.022 A 
HETATM   23  N   UNK     0     -27.042  20.156  13.037  0.00  0.00    -0.361 N 
HETATM   24  C   UNK     0     -27.053  21.391  12.496  0.00  0.00     0.021 A 
HETATM   25  C   UNK     0     -28.260  21.602  11.858  0.00  0.00    -0.031 A 
HETATM   26  C   UNK     0     -28.756  22.842  11.143  0.00  0.00     0.051 C 
HETATM   27  C   UNK     0     -29.017  20.446  12.009  0.00  0.00    -0.027 A 
HETATM   28  C   UNK     0     -25.922  22.405  12.472  0.00  0.00     0.115 C 
HETATM   29  H   UNK     0     -24.010  20.233  13.024  0.00  0.00     0.165 HD
HETATM   30  H   UNK     0     -24.335  18.155  10.361  0.00  0.00     0.165 HD
HETATM   31  H   UNK     0     -26.460  17.715  11.040  0.00  0.00     0.165 HD
HETATM   32  H   UNK     0     -26.216  19.724  13.659  0.00  0.00     0.165 HD
ENDROOT
BRANCH   6  33
HETATM   33  C   UNK     0     -22.271  22.060   9.000  0.00  0.00     0.051 C 
BRANCH  33  34
HETATM   34  C   UNK     0     -21.100  22.953   9.339  0.00  0.00     0.114 C 
BRANCH  34  35
HETATM   35  C   UNK     0     -21.026  24.010   8.291  0.00  0.00     0.139 C 
HETATM   36  O   UNK     0     -21.366  25.199   8.560  0.00  0.00    -0.650 OA
BRANCH  35  37
HETATM   37  O   UNK     0     -20.589  23.753   6.997  0.00  0.00    -0.776 OA
HETATM   38  H   UNK     0     -19.675  23.375   6.807  0.00  0.00     0.167 HD
ENDBRANCH  35  37
ENDBRANCH  34  35
ENDBRANCH  33  34
ENDBRANCH   6  33
BRANCH  27  39
HETATM   39  C   UNK     0     -30.415  20.322  11.513  0.00  0.00     0.051 C 
BRANCH  39  40
HETATM   40  C   UNK     0     -30.658  19.508  10.322  0.00  0.00     0.114 C 
BRANCH  40  41
HETATM   41  C   UNK     0     -31.894  18.785  10.122  0.00  0.00     0.139 C 
HETATM   42  O   UNK     0     -32.874  19.257   9.529  0.00  0.00    -0.650 OA
BRANCH  41  43
HETATM   43  O   UNK     0     -32.008  17.459  10.628  0.00  0.00    -0.776 OA
HETATM   44  H   UNK     0     -31.182  16.889  10.498  0.00  0.00     0.167 HD
ENDBRANCH  41  43
ENDBRANCH  40  41
ENDBRANCH  39  40
ENDBRANCH  27  39
BRANCH  11  45
HETATM   45  C   UNK     0     -21.784  14.889  12.668  0.00  0.00     0.051 C 
BRANCH  45  46
HETATM   46  C   UNK     0     -21.012  13.999  11.764  0.00  0.00     0.114 C 
BRANCH  46  47
HETATM   47  C   UNK     0     -21.917  12.885  11.363  0.00  0.00     0.139 C 
HETATM   48  O   UNK     0     -22.108  11.959  12.164  0.00  0.00    -0.650 OA
BRANCH  47  49
HETATM   49  O   UNK     0     -22.526  12.882  10.133  0.00  0.00    -0.776 OA
HETATM   50  H   UNK     0     -22.102  13.334   9.314  0.00  0.00     0.167 HD
ENDBRANCH  47  49
ENDBRANCH  46  47
ENDBRANCH  45  46
ENDBRANCH  11  45
BRANCH  18  51
HETATM   51  C   UNK     0     -28.410  15.554  14.769  0.00  0.00     0.051 C 
BRANCH  51  52
HETATM   52  C   UNK     0     -28.153  16.583  15.861  0.00  0.00     0.114 C 
BRANCH  52  53
HETATM   53  C   UNK     0     -29.405  17.024  16.505  0.00  0.00     0.139 C 
HETATM   54  O   UNK     0     -30.122  16.203  17.099  0.00  0.00    -0.650 OA
BRANCH  53  55
HETATM   55  O   UNK     0     -29.774  18.346  16.440  0.00  0.00    -0.776 OA
HETATM   56  H   UNK     0     -30.188  18.800  15.660  0.00  0.00     0.167 HD
ENDBRANCH  53  55
ENDBRANCH  52  53
ENDBRANCH  51  52
ENDBRANCH  18  51
TORSDOF 16
ENDMDL
MODEL 8
REMARK VINA RESULT:      -7.8     11.142     16.616
REMARK  16 active torsions:
REMARK  status: ('A' for Active; 'I' for Inactive)
REMARK    1  A    between atoms: C_6  and  C_7 
REMARK    2  A    between atoms: C_7  and  C_8 
REMARK    3  A    between atoms: C_8  and  C_9 
REMARK    4  A    between atoms: C_9  and  O_11 
REMARK    5  A    between atoms: C_16  and  C_17 
REMARK    6  A    between atoms: C_17  and  C_18 
REMARK    7  A    between atoms: C_18  and  C_19 
REMARK    8  A    between atoms: C_19  and  O_21 
REMARK    9  A    between atoms: C_28  and  C_29 
REMARK   10  A    between atoms: C_29  and  C_30 
REMARK   11  A    between atoms: C_30  and  C_31 
REMARK   12  A    between atoms: C_31  and  O_33 
REMARK   13  A    between atoms: C_42  and  C_43 
REMARK   14  A    between atoms: C_43  and  C_44 
REMARK   15  A    between atoms: C_44  and  C_45 
REMARK   16  A    between atoms: C_45  and  O_47 
ROOT
HETATM    1  C   UNK     0     -36.974  16.638   3.936  0.00  0.00     0.051 C 
HETATM    2  C   UNK     0     -38.118  17.450   3.363  0.00  0.00    -0.031 A 
HETATM    3  C   UNK     0     -38.080  18.599   2.590  0.00  0.00     0.021 A 
HETATM    4  N   UNK     0     -39.348  18.999   2.331  0.00  0.00    -0.361 N 
HETATM    5  C   UNK     0     -40.193  18.124   2.915  0.00  0.00     0.022 A 
HETATM    6  C   UNK     0     -39.457  17.143   3.572  0.00  0.00    -0.027 A 
HETATM    7  C   UNK     0     -41.687  18.058   2.854  0.00  0.00     0.115 C 
HETATM    8  C   UNK     0     -42.326  18.300   1.498  0.00  0.00     0.021 A 
HETATM    9  N   UNK     0     -41.872  17.947   0.285  0.00  0.00    -0.361 N 
HETATM   10  C   UNK     0     -42.717  18.449  -0.641  0.00  0.00     0.022 A 
HETATM   11  C   UNK     0     -43.747  19.136  -0.007  0.00  0.00    -0.027 A 
HETATM   12  C   UNK     0     -43.507  19.046   1.341  0.00  0.00    -0.031 A 
HETATM   13  C   UNK     0     -44.375  19.645   2.425  0.00  0.00     0.051 C 
HETATM   14  C   UNK     0     -42.558  18.347  -2.155  0.00  0.00     0.115 C 
HETATM   15  C   UNK     0     -41.291  18.997  -2.687  0.00  0.00     0.021 A 
HETATM   16  N   UNK     0     -40.019  18.709  -2.357  0.00  0.00    -0.361 N 
HETATM   17  C   UNK     0     -39.199  19.552  -2.989  0.00  0.00     0.022 A 
HETATM   18  C   UNK     0     -39.975  20.425  -3.777  0.00  0.00    -0.027 A 
HETATM   19  C   UNK     0     -41.283  20.067  -3.580  0.00  0.00    -0.031 A 
HETATM   20  C   UNK     0     -42.455  20.735  -4.275  0.00  0.00     0.051 C 
HETATM   21  C   UNK     0     -37.697  19.694  -2.905  0.00  0.00     0.115 C 
HETATM   22  C   UNK     0     -37.043  19.413  -1.572  0.00  0.00     0.022 A 
HETATM   23  N   UNK     0     -37.474  19.749  -0.349  0.00  0.00    -0.361 N 
HETATM   24  C   UNK     0     -36.661  19.173   0.559  0.00  0.00     0.021 A 
HETATM   25  C   UNK     0     -35.677  18.457  -0.094  0.00  0.00    -0.031 A 
HETATM   26  C   UNK     0     -34.518  17.677   0.490  0.00  0.00     0.051 C 
HETATM   27  C   UNK     0     -35.900  18.595  -1.460  0.00  0.00    -0.027 A 
HETATM   28  C   UNK     0     -36.799  19.189   2.072  0.00  0.00     0.115 C 
HETATM   29  H   UNK     0     -39.637  19.918   1.770  0.00  0.00     0.165 HD
HETATM   30  H   UNK     0     -40.983  17.301   0.081  0.00  0.00     0.165 HD
HETATM   31  H   UNK     0     -39.687  17.862  -1.700  0.00  0.00     0.165 HD
HETATM   32  H   UNK     0     -38.332  20.432  -0.116  0.00  0.00     0.165 HD
ENDROOT
BRANCH   6  33
HETATM   33  C   UNK     0     -39.922  15.955   4.374  0.00  0.00     0.051 C 
BRANCH  33  34
HETATM   34  C   UNK     0     -40.131  14.755   3.481  0.00  0.00     0.114 C 
BRANCH  34  35
HETATM   35  C   UNK     0     -39.955  13.536   4.322  0.00  0.00     0.139 C 
HETATM   36  O   UNK     0     -39.085  12.670   4.016  0.00  0.00    -0.650 OA
BRANCH  35  37
HETATM   37  O   UNK     0     -40.716  13.295   5.460  0.00  0.00    -0.776 OA
HETATM   38  H   UNK     0     -41.597  13.757   5.622  0.00  0.00     0.167 HD
ENDBRANCH  35  37
ENDBRANCH  34  35
ENDBRANCH  33  34
ENDBRANCH   6  33
BRANCH  27  39
HETATM   39  C   UNK     0     -34.996  18.019  -2.491  0.00  0.00     0.051 C 
BRANCH  39  40
HETATM   40  C   UNK     0     -33.846  18.811  -2.927  0.00  0.00     0.114 C 
BRANCH  40  41
HETATM   41  C   UNK     0     -33.995  20.077  -3.608  0.00  0.00     0.139 C 
HETATM   42  O   UNK     0     -33.510  21.138  -3.192  0.00  0.00    -0.650 OA
BRANCH  41  43
HETATM   43  O   UNK     0     -34.737  20.125  -4.823  0.00  0.00    -0.776 OA
HETATM   44  H   UNK     0     -34.489  19.407  -5.493  0.00  0.00     0.167 HD
ENDBRANCH  41  43
ENDBRANCH  40  41
ENDBRANCH  39  40
ENDBRANCH  27  39
BRANCH  11  45
HETATM   45  C   UNK     0     -44.920  19.852  -0.622  0.00  0.00     0.051 C 
BRANCH  45  46
HETATM   46  C   UNK     0     -46.146  19.021  -0.735  0.00  0.00     0.114 C 
BRANCH  46  47
HETATM   47  C   UNK     0     -46.201  18.505  -2.133  0.00  0.00     0.139 C 
HETATM   48  O   UNK     0     -46.571  17.337  -2.319  0.00  0.00    -0.650 OA
BRANCH  47  49
HETATM   49  O   UNK     0     -45.849  19.304  -3.192  0.00  0.00    -0.776 OA
HETATM   50  H   UNK     0     -45.666  18.921  -4.127  0.00  0.00     0.167 HD
ENDBRANCH  47  49
ENDBRANCH  46  47
ENDBRANCH  45  46
ENDBRANCH  11  45
BRANCH  18  51
HETATM   51  C   UNK     0     -39.494  21.527  -4.685  0.00  0.00     0.051 C 
BRANCH  51  52
HETATM   52  C   UNK     0     -38.842  20.843  -5.878  0.00  0.00     0.114 C 
BRANCH  52  53
HETATM   53  C   UNK     0     -39.821  20.536  -6.938  0.00  0.00     0.139 C 
HETATM   54  O   UNK     0     -40.670  21.382  -7.264  0.00  0.00    -0.650 OA
BRANCH  53  55
HETATM   55  O   UNK     0     -39.790  19.310  -7.557  0.00  0.00    -0.776 OA
HETATM   56  H   UNK     0     -39.222  19.062  -8.332  0.00  0.00     0.167 HD
ENDBRANCH  53  55
ENDBRANCH  52  53
ENDBRANCH  51  52
ENDBRANCH  18  51
TORSDOF 16
ENDMDL
MODEL 9
REMARK VINA RESULT:      -7.8     11.428     15.746
REMARK  16 active torsions:
REMARK  status: ('A' for Active; 'I' for Inactive)
REMARK    1  A    between atoms: C_6  and  C_7 
REMARK    2  A    between atoms: C_7  and  C_8 
REMARK    3  A    between atoms: C_8  and  C_9 
REMARK    4  A    between atoms: C_9  and  O_11 
REMARK    5  A    between atoms: C_16  and  C_17 
REMARK    6  A    between atoms: C_17  and  C_18 
REMARK    7  A    between atoms: C_18  and  C_19 
REMARK    8  A    between atoms: C_19  and  O_21 
REMARK    9  A    between atoms: C_28  and  C_29 
REMARK   10  A    between atoms: C_29  and  C_30 
REMARK   11  A    between atoms: C_30  and  C_31 
REMARK   12  A    between atoms: C_31  and  O_33 
REMARK   13  A    between atoms: C_42  and  C_43 
REMARK   14  A    between atoms: C_43  and  C_44 
REMARK   15  A    between atoms: C_44  and  C_45 
REMARK   16  A    between atoms: C_45  and  O_47 
ROOT
HETATM    1  C   UNK     0     -36.408  22.255  -5.481  0.00  0.00     0.051 C 
HETATM    2  C   UNK     0     -37.075  21.158  -4.675  0.00  0.00    -0.031 A 
HETATM    3  C   UNK     0     -36.510  20.054  -4.056  0.00  0.00     0.021 A 
HETATM    4  N   UNK     0     -37.492  19.324  -3.475  0.00  0.00    -0.361 N 
HETATM    5  C   UNK     0     -38.668  19.944  -3.702  0.00  0.00     0.022 A 
HETATM    6  C   UNK     0     -38.444  21.093  -4.453  0.00  0.00    -0.027 A 
HETATM    7  C   UNK     0     -40.037  19.603  -3.201  0.00  0.00     0.115 C 
HETATM    8  C   UNK     0     -40.144  19.183  -1.745  0.00  0.00     0.021 A 
HETATM    9  N   UNK     0     -39.446  19.634  -0.692  0.00  0.00    -0.361 N 
HETATM   10  C   UNK     0     -39.808  18.913   0.391  0.00  0.00     0.022 A 
HETATM   11  C   UNK     0     -40.773  17.979   0.026  0.00  0.00    -0.027 A 
HETATM   12  C   UNK     0     -40.990  18.144  -1.318  0.00  0.00    -0.031 A 
HETATM   13  C   UNK     0     -41.966  17.344  -2.151  0.00  0.00     0.051 C 
HETATM   14  C   UNK     0     -39.224  19.039   1.795  0.00  0.00     0.115 C 
HETATM   15  C   UNK     0     -37.733  18.750   1.870  0.00  0.00     0.021 A 
HETATM   16  N   UNK     0     -36.741  19.375   1.209  0.00  0.00    -0.361 N 
HETATM   17  C   UNK     0     -35.581  18.779   1.493  0.00  0.00     0.022 A 
HETATM   18  C   UNK     0     -35.828  17.720   2.390  0.00  0.00    -0.027 A 
HETATM   19  C   UNK     0     -37.179  17.714   2.619  0.00  0.00    -0.031 A 
HETATM   20  C   UNK     0     -37.871  16.746   3.562  0.00  0.00     0.051 C 
HETATM   21  C   UNK     0     -34.193  19.049   0.959  0.00  0.00     0.115 C 
HETATM   22  C   UNK     0     -34.074  19.510  -0.475  0.00  0.00     0.022 A 
HETATM   23  N   UNK     0     -34.759  19.082  -1.543  0.00  0.00    -0.361 N 
HETATM   24  C   UNK     0     -34.439  19.865  -2.593  0.00  0.00     0.021 A 
HETATM   25  C   UNK     0     -33.518  20.814  -2.193  0.00  0.00    -0.031 A 
HETATM   26  C   UNK     0     -32.833  21.884  -3.017  0.00  0.00     0.051 C 
HETATM   27  C   UNK     0     -33.268  20.607  -0.841  0.00  0.00    -0.027 A 
HETATM   28  C   UNK     0     -35.026  19.828  -3.993  0.00  0.00     0.115 C 
HETATM   29  H   UNK     0     -37.351  18.356  -2.942  0.00  0.00     0.165 HD
HETATM   30  H   UNK     0     -38.732  20.494  -0.698  0.00  0.00     0.165 HD
HETATM   31  H   UNK     0     -36.854  20.286   0.565  0.00  0.00     0.165 HD
HETATM   32  H   UNK     0     -35.443  18.195  -1.576  0.00  0.00     0.165 HD
ENDROOT
BRANCH   6  33
HETATM   33  C   UNK     0     -39.420  22.120  -4.971  0.00  0.00     0.051 C 
BRANCH  33  34
HETATM   34  C   UNK     0     -39.633  21.953  -6.456  0.00  0.00     0.114 C 
BRANCH  34  35
HETATM   35  C   UNK     0     -40.553  20.796  -6.649  0.00  0.00     0.139 C 
HETATM   36  O   UNK     0     -40.140  19.740  -7.211  0.00  0.00    -0.650 OA
BRANCH  35  37
HETATM   37  O   UNK     0     -41.878  20.813  -6.229  0.00  0.00    -0.776 OA
HETATM   38  H   UNK     0     -42.142  21.117  -5.305  0.00  0.00     0.167 HD
ENDBRANCH  35  37
ENDBRANCH  34  35
ENDBRANCH  33  34
ENDBRANCH   6  33
BRANCH  27  39
HETATM   39  C   UNK     0     -32.269  21.396  -0.071  0.00  0.00     0.051 C 
BRANCH  39  40
HETATM   40  C   UNK     0     -32.727  22.140   1.102  0.00  0.00     0.114 C 
BRANCH  40  41
HETATM   41  C   UNK     0     -32.338  21.775   2.446  0.00  0.00     0.139 C 
HETATM   42  O   UNK     0     -32.738  22.367   3.458  0.00  0.00    -0.650 OA
BRANCH  41  43
HETATM   43  O   UNK     0     -31.448  20.680   2.634  0.00  0.00    -0.776 OA
HETATM   44  H   UNK     0     -31.772  19.986   3.297  0.00  0.00     0.167 HD
ENDBRANCH  41  43
ENDBRANCH  40  41
ENDBRANCH  39  40
ENDBRANCH  27  39
BRANCH  11  45
HETATM   45  C   UNK     0     -41.478  16.967   0.889  0.00  0.00     0.051 C 
BRANCH  45  46
HETATM   46  C   UNK     0     -42.577  17.532   1.712  0.00  0.00     0.114 C 
BRANCH  46  47
HETATM   47  C   UNK     0     -42.924  16.515   2.745  0.00  0.00     0.139 C 
HETATM   48  O   UNK     0     -42.766  15.317   2.473  0.00  0.00    -0.650 OA
BRANCH  47  49
HETATM   49  O   UNK     0     -43.408  16.896   3.971  0.00  0.00    -0.776 OA
HETATM   50  H   UNK     0     -44.222  16.440   4.401  0.00  0.00     0.167 HD
ENDBRANCH  47  49
ENDBRANCH  46  47
ENDBRANCH  45  46
ENDBRANCH  11  45
BRANCH  18  51
HETATM   51  C   UNK     0     -34.828  16.780   3.011  0.00  0.00     0.051 C 
BRANCH  51  52
HETATM   52  C   UNK     0     -34.535  15.717   1.964  0.00  0.00     0.114 C 
BRANCH  52  53
HETATM   53  C   UNK     0     -33.130  15.268   2.015  0.00  0.00     0.139 C 
HETATM   54  O   UNK     0     -32.646  14.862   3.083  0.00  0.00    -0.650 OA
BRANCH  53  55
HETATM   55  O   UNK     0     -32.363  15.304   0.876  0.00  0.00    -0.776 OA
HETATM   56  H   UNK     0     -31.373  15.364   0.840  0.00  0.00     0.167 HD
ENDBRANCH  53  55
ENDBRANCH  52  53
ENDBRANCH  51  52
ENDBRANCH  18  51
TORSDOF 16
ENDMDL
MODEL 10
REMARK VINA RESULT:      -7.8     11.034     16.045
REMARK  16 active torsions:
REMARK  status: ('A' for Active; 'I' for Inactive)
REMARK    1  A    between atoms: C_6  and  C_7 
REMARK    2  A    between atoms: C_7  and  C_8 
REMARK    3  A    between atoms: C_8  and  C_9 
REMARK    4  A    between atoms: C_9  and  O_11 
REMARK    5  A    between atoms: C_16  and  C_17 
REMARK    6  A    between atoms: C_17  and  C_18 
REMARK    7  A    between atoms: C_18  and  C_19 
REMARK    8  A    between atoms: C_19  and  O_21 
REMARK    9  A    between atoms: C_28  and  C_29 
REMARK   10  A    between atoms: C_29  and  C_30 
REMARK   11  A    between atoms: C_30  and  C_31 
REMARK   12  A    between atoms: C_31  and  O_33 
REMARK   13  A    between atoms: C_42  and  C_43 
REMARK   14  A    between atoms: C_43  and  C_44 
REMARK   15  A    between atoms: C_44  and  C_45 
REMARK   16  A    between atoms: C_45  and  O_47 
ROOT
HETATM    1  C   UNK     0     -43.393  19.269   3.857  0.00  0.00     0.051 C 
HETATM    2  C   UNK     0     -42.093  18.629   3.413  0.00  0.00    -0.031 A 
HETATM    3  C   UNK     0     -41.764  18.060   2.193  0.00  0.00     0.021 A 
HETATM    4  N   UNK     0     -40.498  17.583   2.256  0.00  0.00    -0.361 N 
HETATM    5  C   UNK     0     -40.011  17.843   3.487  0.00  0.00     0.022 A 
HETATM    6  C   UNK     0     -40.984  18.494   4.238  0.00  0.00    -0.027 A 
HETATM    7  C   UNK     0     -38.639  17.607   4.037  0.00  0.00     0.115 C 
HETATM    8  C   UNK     0     -37.472  17.946   3.125  0.00  0.00     0.021 A 
HETATM    9  N   UNK     0     -37.368  18.946   2.237  0.00  0.00    -0.361 N 
HETATM   10  C   UNK     0     -36.194  18.808   1.585  0.00  0.00     0.022 A 
HETATM   11  C   UNK     0     -35.519  17.692   2.074  0.00  0.00    -0.027 A 
HETATM   12  C   UNK     0     -36.319  17.145   3.044  0.00  0.00    -0.031 A 
HETATM   13  C   UNK     0     -35.988  15.914   3.858  0.00  0.00     0.051 C 
HETATM   14  C   UNK     0     -35.687  19.686   0.445  0.00  0.00     0.115 C 
HETATM   15  C   UNK     0     -36.583  19.678  -0.783  0.00  0.00     0.021 A 
HETATM   16  N   UNK     0     -37.881  20.028  -0.855  0.00  0.00    -0.361 N 
HETATM   17  C   UNK     0     -38.326  19.814  -2.095  0.00  0.00     0.022 A 
HETATM   18  C   UNK     0     -37.264  19.309  -2.872  0.00  0.00    -0.027 A 
HETATM   19  C   UNK     0     -36.178  19.230  -2.039  0.00  0.00    -0.031 A 
HETATM   20  C   UNK     0     -34.804  18.766  -2.485  0.00  0.00     0.051 C 
HETATM   21  C   UNK     0     -39.714  19.975  -2.671  0.00  0.00     0.115 C 
HETATM   22  C   UNK     0     -40.885  19.684  -1.762  0.00  0.00     0.022 A 
HETATM   23  N   UNK     0     -41.014  18.698  -0.866  0.00  0.00    -0.361 N 
HETATM   24  C   UNK     0     -42.154  18.901  -0.175  0.00  0.00     0.021 A 
HETATM   25  C   UNK     0     -42.779  20.040  -0.645  0.00  0.00    -0.031 A 
HETATM   26  C   UNK     0     -44.097  20.650  -0.216  0.00  0.00     0.051 C 
HETATM   27  C   UNK     0     -41.986  20.559  -1.661  0.00  0.00    -0.027 A 
HETATM   28  C   UNK     0     -42.681  18.101   1.004  0.00  0.00     0.115 C 
HETATM   29  H   UNK     0     -39.972  17.030   1.444  0.00  0.00     0.165 HD
HETATM   30  H   UNK     0     -38.098  19.781   2.103  0.00  0.00     0.165 HD
HETATM   31  H   UNK     0     -38.485  20.481  -0.025  0.00  0.00     0.165 HD
HETATM   32  H   UNK     0     -40.323  17.824  -0.742  0.00  0.00     0.165 HD
ENDROOT
BRANCH   6  33
HETATM   33  C   UNK     0     -40.940  18.989   5.661  0.00  0.00     0.051 C 
BRANCH  33  34
HETATM   34  C   UNK     0     -41.770  18.104   6.561  0.00  0.00     0.114 C 
BRANCH  34  35
HETATM   35  C   UNK     0     -42.600  18.995   7.422  0.00  0.00     0.139 C 
HETATM   36  O   UNK     0     -43.855  19.041   7.267  0.00  0.00    -0.650 OA
BRANCH  35  37
HETATM   37  O   UNK     0     -42.054  19.798   8.415  0.00  0.00    -0.776 OA
HETATM   38  H   UNK     0     -42.608  20.164   9.172  0.00  0.00     0.167 HD
ENDBRANCH  35  37
ENDBRANCH  34  35
ENDBRANCH  33  34
ENDBRANCH   6  33
BRANCH  27  39
HETATM   39  C   UNK     0     -42.372  21.753  -2.461  0.00  0.00     0.051 C 
BRANCH  39  40
HETATM   40  C   UNK     0     -43.353  21.584  -3.533  0.00  0.00     0.114 C 
BRANCH  40  41
HETATM   41  C   UNK     0     -42.968  21.231  -4.881  0.00  0.00     0.139 C 
HETATM   42  O   UNK     0     -41.792  21.079  -5.239  0.00  0.00    -0.650 OA
BRANCH  41  43
HETATM   43  O   UNK     0     -43.983  21.043  -5.862  0.00  0.00    -0.776 OA
HETATM   44  H   UNK     0     -44.726  21.731  -5.833  0.00  0.00     0.167 HD
ENDBRANCH  41  43
ENDBRANCH  40  41
ENDBRANCH  39  40
ENDBRANCH  27  39
BRANCH  11  45
HETATM   45  C   UNK     0     -34.178  17.148   1.661  0.00  0.00     0.051 C 
BRANCH  45  46
HETATM   46  C   UNK     0     -34.251  16.022   0.695  0.00  0.00     0.114 C 
BRANCH  46  47
HETATM   47  C   UNK     0     -33.471  14.892   1.275  0.00  0.00     0.139 C 
HETATM   48  O   UNK     0     -33.921  13.743   1.163  0.00  0.00    -0.650 OA
BRANCH  47  49
HETATM   49  O   UNK     0     -32.281  15.117   1.919  0.00  0.00    -0.776 OA
HETATM   50  H   UNK     0     -31.700  14.348   2.275  0.00  0.00     0.167 HD
ENDBRANCH  47  49
ENDBRANCH  46  47
ENDBRANCH  45  46
ENDBRANCH  11  45
BRANCH  18  51
HETATM   51  C   UNK     0     -37.277  18.943  -4.333  0.00  0.00     0.051 C 
BRANCH  51  52
HETATM   52  C   UNK     0     -37.066  20.240  -5.100  0.00  0.00     0.114 C 
BRANCH  52  53
HETATM   53  C   UNK     0     -38.293  20.673  -5.796  0.00  0.00     0.139 C 
HETATM   54  O   UNK     0     -38.444  21.865  -6.106  0.00  0.00    -0.650 OA
BRANCH  53  55
HETATM   55  O   UNK     0     -39.266  19.751  -6.094  0.00  0.00    -0.776 OA
HETATM   56  H   UNK     0     -39.403  19.310  -6.974  0.00  0.00     0.167 HD
ENDBRANCH  53  55
ENDBRANCH  52  53
ENDBRANCH  51  52
ENDBRANCH  18  51
TORSDOF 16
ENDMDL
MODEL 11
REMARK VINA RESULT:      -7.7     11.742     17.125
REMARK  16 active torsions:
REMARK  status: ('A' for Active; 'I' for Inactive)
REMARK    1  A    between atoms: C_6  and  C_7 
REMARK    2  A    between atoms: C_7  and  C_8 
REMARK    3  A    between atoms: C_8  and  C_9 
REMARK    4  A    between atoms: C_9  and  O_11 
REMARK    5  A    between atoms: C_16  and  C_17 
REMARK    6  A    between atoms: C_17  and  C_18 
REMARK    7  A    between atoms: C_18  and  C_19 
REMARK    8  A    between atoms: C_19  and  O_21 
REMARK    9  A    between atoms: C_28  and  C_29 
REMARK   10  A    between atoms: C_29  and  C_30 
REMARK   11  A    between atoms: C_30  and  C_31 
REMARK   12  A    between atoms: C_31  and  O_33 
REMARK   13  A    between atoms: C_42  and  C_43 
REMARK   14  A    between atoms: C_43  and  C_44 
REMARK   15  A    between atoms: C_44  and  C_45 
REMARK   16  A    between atoms: C_45  and  O_47 
ROOT
HETATM    1  C   UNK     0     -34.196  18.427  -1.086  0.00  0.00     0.051 C 
HETATM    2  C   UNK     0     -35.456  18.757  -0.313  0.00  0.00    -0.031 A 
HETATM    3  C   UNK     0     -36.339  19.813  -0.478  0.00  0.00     0.021 A 
HETATM    4  N   UNK     0     -37.311  19.727   0.460  0.00  0.00    -0.361 N 
HETATM    5  C   UNK     0     -37.073  18.634   1.215  0.00  0.00     0.022 A 
HETATM    6  C   UNK     0     -35.918  18.005   0.760  0.00  0.00    -0.027 A 
HETATM    7  C   UNK     0     -37.893  18.041   2.318  0.00  0.00     0.115 C 
HETATM    8  C   UNK     0     -39.394  17.987   2.097  0.00  0.00     0.021 A 
HETATM    9  N   UNK     0     -40.064  17.768   0.955  0.00  0.00    -0.361 N 
HETATM   10  C   UNK     0     -41.383  17.900   1.210  0.00  0.00     0.022 A 
HETATM   11  C   UNK     0     -41.568  18.203   2.556  0.00  0.00    -0.027 A 
HETATM   12  C   UNK     0     -40.319  18.259   3.120  0.00  0.00    -0.031 A 
HETATM   13  C   UNK     0     -40.030  18.555   4.575  0.00  0.00     0.051 C 
HETATM   14  C   UNK     0     -42.513  17.800   0.190  0.00  0.00     0.115 C 
HETATM   15  C   UNK     0     -42.434  18.835  -0.921  0.00  0.00     0.021 A 
HETATM   16  N   UNK     0     -41.427  19.029  -1.792  0.00  0.00    -0.361 N 
HETATM   17  C   UNK     0     -41.711  20.081  -2.563  0.00  0.00     0.022 A 
HETATM   18  C   UNK     0     -42.968  20.591  -2.182  0.00  0.00    -0.027 A 
HETATM   19  C   UNK     0     -43.411  19.801  -1.154  0.00  0.00    -0.031 A 
HETATM   20  C   UNK     0     -44.753  19.982  -0.467  0.00  0.00     0.051 C 
HETATM   21  C   UNK     0     -40.885  20.749  -3.639  0.00  0.00     0.115 C 
HETATM   22  C   UNK     0     -39.386  20.772  -3.453  0.00  0.00     0.022 A 
HETATM   23  N   UNK     0     -38.692  20.983  -2.327  0.00  0.00    -0.361 N 
HETATM   24  C   UNK     0     -37.386  20.770  -2.588  0.00  0.00     0.021 A 
HETATM   25  C   UNK     0     -37.235  20.423  -3.917  0.00  0.00    -0.031 A 
HETATM   26  C   UNK     0     -35.964  20.128  -4.687  0.00  0.00     0.051 C 
HETATM   27  C   UNK     0     -38.501  20.418  -4.492  0.00  0.00    -0.027 A 
HETATM   28  C   UNK     0     -36.226  20.797  -1.608  0.00  0.00     0.115 C 
HETATM   29  H   UNK     0     -38.137  20.461   0.608  0.00  0.00     0.165 HD
HETATM   30  H   UNK     0     -39.612  17.471  -0.023  0.00  0.00     0.165 HD
HETATM   31  H   UNK     0     -40.518  18.382  -1.898  0.00  0.00     0.165 HD
HETATM   32  H   UNK     0     -39.113  21.327  -1.347  0.00  0.00     0.165 HD
ENDROOT
BRANCH   6  33
HETATM   33  C   UNK     0     -35.228  16.763   1.263  0.00  0.00     0.051 C 
BRANCH  33  34
HETATM   34  C   UNK     0     -34.266  17.098   2.377  0.00  0.00     0.114 C 
BRANCH  34  35
HETATM   35  C   UNK     0     -34.482  16.106   3.468  0.00  0.00     0.139 C 
HETATM   36  O   UNK     0     -34.558  16.489   4.672  0.00  0.00    -0.650 OA
BRANCH  35  37
HETATM   37  O   UNK     0     -34.612  14.743   3.227  0.00  0.00    -0.776 OA
HETATM   38  H   UNK     0     -35.462  14.343   2.866  0.00  0.00     0.167 HD
ENDBRANCH  35  37
ENDBRANCH  34  35
ENDBRANCH  33  34
ENDBRANCH   6  33
BRANCH  27  39
HETATM   39  C   UNK     0     -38.733  20.157  -5.938  0.00  0.00     0.051 C 
BRANCH  39  40
HETATM   40  C   UNK     0     -39.674  21.018  -6.656  0.00  0.00     0.114 C 
BRANCH  40  41
HETATM   41  C   UNK     0     -40.608  20.495  -7.627  0.00  0.00     0.139 C 
HETATM   42  O   UNK     0     -40.290  19.705  -8.526  0.00  0.00    -0.650 OA
BRANCH  41  43
HETATM   43  O   UNK     0     -41.972  20.901  -7.562  0.00  0.00    -0.776 OA
HETATM   44  H   UNK     0     -42.275  21.203  -6.644  0.00  0.00     0.167 HD
ENDBRANCH  41  43
ENDBRANCH  40  41
ENDBRANCH  39  40
ENDBRANCH  27  39
BRANCH  11  45
HETATM   45  C   UNK     0     -42.856  18.432   3.301  0.00  0.00     0.051 C 
BRANCH  45  46
HETATM   46  C   UNK     0     -43.682  17.210   3.472  0.00  0.00     0.114 C 
BRANCH  46  47
HETATM   47  C   UNK     0     -44.792  17.554   4.407  0.00  0.00     0.139 C 
HETATM   48  O   UNK     0     -45.875  17.921   3.931  0.00  0.00    -0.650 OA
BRANCH  47  49
HETATM   49  O   UNK     0     -44.618  17.468   5.765  0.00  0.00    -0.776 OA
HETATM   50  H   UNK     0     -44.695  16.577   6.269  0.00  0.00     0.167 HD
ENDBRANCH  47  49
ENDBRANCH  46  47
ENDBRANCH  45  46
ENDBRANCH  11  45
BRANCH  18  51
HETATM   51  C   UNK     0     -43.716  21.754  -2.780  0.00  0.00     0.051 C 
BRANCH  51  52
HETATM   52  C   UNK     0     -44.626  21.171  -3.851  0.00  0.00     0.114 C 
BRANCH  52  53
HETATM   53  C   UNK     0     -44.207  21.574  -5.207  0.00  0.00     0.139 C 
HETATM   54  O   UNK     0     -43.407  22.511  -5.358  0.00  0.00    -0.650 OA
BRANCH  53  55
HETATM   55  O   UNK     0     -44.711  20.911  -6.300  0.00  0.00    -0.776 OA
HETATM   56  H   UNK     0     -44.576  19.951  -6.513  0.00  0.00     0.167 HD
ENDBRANCH  53  55
ENDBRANCH  52  53
ENDBRANCH  51  52
ENDBRANCH  18  51
TORSDOF 16
ENDMDL
MODEL 12
REMARK VINA RESULT:      -7.5     11.911     17.698
REMARK  16 active torsions:
REMARK  status: ('A' for Active; 'I' for Inactive)
REMARK    1  A    between atoms: C_6  and  C_7 
REMARK    2  A    between atoms: C_7  and  C_8 
REMARK    3  A    between atoms: C_8  and  C_9 
REMARK    4  A    between atoms: C_9  and  O_11 
REMARK    5  A    between atoms: C_16  and  C_17 
REMARK    6  A    between atoms: C_17  and  C_18 
REMARK    7  A    between atoms: C_18  and  C_19 
REMARK    8  A    between atoms: C_19  and  O_21 
REMARK    9  A    between atoms: C_28  and  C_29 
REMARK   10  A    between atoms: C_29  and  C_30 
REMARK   11  A    between atoms: C_30  and  C_31 
REMARK   12  A    between atoms: C_31  and  O_33 
REMARK   13  A    between atoms: C_42  and  C_43 
REMARK   14  A    between atoms: C_43  and  C_44 
REMARK   15  A    between atoms: C_44  and  C_45 
REMARK   16  A    between atoms: C_45  and  O_47 
ROOT
HETATM    1  C   UNK     0     -43.253  20.971  -4.406  0.00  0.00     0.051 C 
HETATM    2  C   UNK     0     -41.797  21.260  -4.101  0.00  0.00    -0.031 A 
HETATM    3  C   UNK     0     -41.175  21.442  -2.876  0.00  0.00     0.021 A 
HETATM    4  N   UNK     0     -39.863  21.709  -3.083  0.00  0.00    -0.361 N 
HETATM    5  C   UNK     0     -39.635  21.693  -4.412  0.00  0.00     0.022 A 
HETATM    6  C   UNK     0     -40.824  21.418  -5.079  0.00  0.00    -0.027 A 
HETATM    7  C   UNK     0     -38.345  21.835  -5.158  0.00  0.00     0.115 C 
HETATM    8  C   UNK     0     -37.146  21.094  -4.593  0.00  0.00     0.021 A 
HETATM    9  N   UNK     0     -37.112  19.899  -3.985  0.00  0.00    -0.361 N 
HETATM   10  C   UNK     0     -35.849  19.677  -3.565  0.00  0.00     0.022 A 
HETATM   11  C   UNK     0     -35.044  20.756  -3.920  0.00  0.00    -0.027 A 
HETATM   12  C   UNK     0     -35.855  21.652  -4.569  0.00  0.00    -0.031 A 
HETATM   13  C   UNK     0     -35.409  22.978  -5.142  0.00  0.00     0.051 C 
HETATM   14  C   UNK     0     -35.362  18.470  -2.768  0.00  0.00     0.115 C 
HETATM   15  C   UNK     0     -36.039  18.312  -1.415  0.00  0.00     0.021 A 
HETATM   16  N   UNK     0     -37.354  18.169  -1.166  0.00  0.00    -0.361 N 
HETATM   17  C   UNK     0     -37.548  18.132   0.154  0.00  0.00     0.022 A 
HETATM   18  C   UNK     0     -36.299  18.246   0.796  0.00  0.00    -0.027 A 
HETATM   19  C   UNK     0     -35.362  18.357  -0.198  0.00  0.00    -0.031 A 
HETATM   20  C   UNK     0     -33.870  18.466   0.057  0.00  0.00     0.051 C 
HETATM   21  C   UNK     0     -38.835  18.057   0.945  0.00  0.00     0.115 C 
HETATM   22  C   UNK     0     -40.047  18.752   0.373  0.00  0.00     0.022 A 
HETATM   23  N   UNK     0     -40.109  19.941  -0.242  0.00  0.00    -0.361 N 
HETATM   24  C   UNK     0     -41.359  20.106  -0.720  0.00  0.00     0.021 A 
HETATM   25  C   UNK     0     -42.123  19.001  -0.397  0.00  0.00    -0.031 A 
HETATM   26  C   UNK     0     -43.588  18.740  -0.679  0.00  0.00     0.051 C 
HETATM   27  C   UNK     0     -41.306  18.121   0.303  0.00  0.00    -0.027 A 
HETATM   28  C   UNK     0     -41.887  21.251  -1.566  0.00  0.00     0.115 C 
HETATM   29  H   UNK     0     -39.117  21.946  -2.290  0.00  0.00     0.165 HD
HETATM   30  H   UNK     0     -37.968  19.186  -3.894  0.00  0.00     0.165 HD
HETATM   31  H   UNK     0     -38.157  18.044  -1.938  0.00  0.00     0.165 HD
HETATM   32  H   UNK     0     -39.282  20.695  -0.306  0.00  0.00     0.165 HD
ENDROOT
BRANCH   6  33
HETATM   33  C   UNK     0     -41.102  21.298  -6.556  0.00  0.00     0.051 C 
BRANCH  33  34
HETATM   34  C   UNK     0     -40.385  20.105  -7.140  0.00  0.00     0.114 C 
BRANCH  34  35
HETATM   35  C   UNK     0     -40.602  20.131  -8.615  0.00  0.00     0.139 C 
HETATM   36  O   UNK     0     -39.652  20.437  -9.394  0.00  0.00    -0.650 OA
BRANCH  35  37
HETATM   37  O   UNK     0     -41.826  19.828  -9.198  0.00  0.00    -0.776 OA
HETATM   38  H   UNK     0     -42.628  20.430  -9.101  0.00  0.00     0.167 HD
ENDBRANCH  35  37
ENDBRANCH  34  35
ENDBRANCH  33  34
ENDBRANCH   6  33
BRANCH  27  39
HETATM   39  C   UNK     0     -41.799  16.842   0.882  0.00  0.00     0.051 C 
BRANCH  39  40
HETATM   40  C   UNK     0     -42.245  16.837   2.275  0.00  0.00     0.114 C 
BRANCH  40  41
HETATM   41  C   UNK     0     -41.537  16.115   3.308  0.00  0.00     0.139 C 
HETATM   42  O   UNK     0     -41.020  15.003   3.133  0.00  0.00    -0.650 OA
BRANCH  41  43
HETATM   43  O   UNK     0     -41.417  16.698   4.601  0.00  0.00    -0.776 OA
HETATM   44  H   UNK     0     -40.751  16.237   5.209  0.00  0.00     0.167 HD
ENDBRANCH  41  43
ENDBRANCH  40  41
ENDBRANCH  39  40
ENDBRANCH  27  39
BRANCH  11  45
HETATM   45  C   UNK     0     -33.573  20.955  -3.674  0.00  0.00     0.051 C 
BRANCH  45  46
HETATM   46  C   UNK     0     -33.246  21.428  -2.304  0.00  0.00     0.114 C 
BRANCH  46  47
HETATM   47  C   UNK     0     -32.807  22.848  -2.421  0.00  0.00     0.139 C 
HETATM   48  O   UNK     0     -33.636  23.744  -2.209  0.00  0.00    -0.650 OA
BRANCH  47  49
HETATM   49  O   UNK     0     -31.514  23.158  -2.758  0.00  0.00    -0.776 OA
HETATM   50  H   UNK     0     -30.757  23.168  -2.064  0.00  0.00     0.167 HD
ENDBRANCH  47  49
ENDBRANCH  46  47
ENDBRANCH  45  46
ENDBRANCH  11  45
BRANCH  18  51
HETATM   51  C   UNK     0     -36.012  18.229   2.275  0.00  0.00     0.051 C 
BRANCH  51  52
HETATM   52  C   UNK     0     -36.170  16.784   2.723  0.00  0.00     0.114 C 
BRANCH  52  53
HETATM   53  C   UNK     0     -34.964  16.289   3.416  0.00  0.00     0.139 C 
HETATM   54  O   UNK     0     -33.988  17.039   3.576  0.00  0.00    -0.650 OA
BRANCH  53  55
HETATM   55  O   UNK     0     -34.929  14.996   3.878  0.00  0.00    -0.776 OA
HETATM   56  H   UNK     0     -34.498  14.225   3.425  0.00  0.00     0.167 HD
ENDBRANCH  53  55
ENDBRANCH  52  53
ENDBRANCH  51  52
ENDBRANCH  18  51
TORSDOF 16
ENDMDL
MODEL 13
REMARK VINA RESULT:      -7.5     16.242     20.223
REMARK  16 active torsions:
REMARK  status: ('A' for Active; 'I' for Inactive)
REMARK    1  A    between atoms: C_6  and  C_7 
REMARK    2  A    between atoms: C_7  and  C_8 
REMARK    3  A    between atoms: C_8  and  C_9 
REMARK    4  A    between atoms: C_9  and  O_11 
REMARK    5  A    between atoms: C_16  and  C_17 
REMARK    6  A    between atoms: C_17  and  C_18 
REMARK    7  A    between atoms: C_18  and  C_19 
REMARK    8  A    between atoms: C_19  and  O_21 
REMARK    9  A    between atoms: C_28  and  C_29 
REMARK   10  A    between atoms: C_29  and  C_30 
REMARK   11  A    between atoms: C_30  and  C_31 
REMARK   12  A    between atoms: C_31  and  O_33 
REMARK   13  A    between atoms: C_42  and  C_43 
REMARK   14  A    between atoms: C_43  and  C_44 
REMARK   15  A    between atoms: C_44  and  C_45 
REMARK   16  A    between atoms: C_45  and  O_47 
ROOT
HETATM    1  C   UNK     0     -22.627  14.369  12.222  0.00  0.00     0.051 C 
HETATM    2  C   UNK     0     -22.975  15.699  11.584  0.00  0.00    -0.031 A 
HETATM    3  C   UNK     0     -24.197  16.159  11.121  0.00  0.00     0.021 A 
HETATM    4  N   UNK     0     -24.033  17.398  10.598  0.00  0.00    -0.361 N 
HETATM    5  C   UNK     0     -22.734  17.740  10.726  0.00  0.00     0.022 A 
HETATM    6  C   UNK     0     -22.043  16.698  11.336  0.00  0.00    -0.027 A 
HETATM    7  C   UNK     0     -22.053  19.031  10.395  0.00  0.00     0.115 C 
HETATM    8  C   UNK     0     -22.784  20.305  10.778  0.00  0.00     0.021 A 
HETATM    9  N   UNK     0     -23.553  20.537  11.854  0.00  0.00    -0.361 N 
HETATM   10  C   UNK     0     -24.073  21.777  11.738  0.00  0.00     0.022 A 
HETATM   11  C   UNK     0     -23.619  22.364  10.560  0.00  0.00    -0.027 A 
HETATM   12  C   UNK     0     -22.807  21.442   9.951  0.00  0.00    -0.031 A 
HETATM   13  C   UNK     0     -22.083  21.646   8.639  0.00  0.00     0.051 C 
HETATM   14  C   UNK     0     -25.056  22.436  12.701  0.00  0.00     0.115 C 
HETATM   15  C   UNK     0     -26.375  21.693  12.838  0.00  0.00     0.021 A 
HETATM   16  N   UNK     0     -26.564  20.420  13.236  0.00  0.00    -0.361 N 
HETATM   17  C   UNK     0     -27.863  20.124  13.154  0.00  0.00     0.022 A 
HETATM   18  C   UNK     0     -28.555  21.260  12.689  0.00  0.00    -0.027 A 
HETATM   19  C   UNK     0     -27.612  22.236  12.497  0.00  0.00    -0.031 A 
HETATM   20  C   UNK     0     -27.937  23.643  12.031  0.00  0.00     0.051 C 
HETATM   21  C   UNK     0     -28.580  18.818  13.414  0.00  0.00     0.115 C 
HETATM   22  C   UNK     0     -27.847  17.541  13.078  0.00  0.00     0.022 A 
HETATM   23  N   UNK     0     -27.071  17.283  12.017  0.00  0.00    -0.361 N 
HETATM   24  C   UNK     0     -26.502  16.074  12.192  0.00  0.00     0.021 A 
HETATM   25  C   UNK     0     -26.929  15.534  13.390  0.00  0.00    -0.031 A 
HETATM   26  C   UNK     0     -26.601  14.188  14.001  0.00  0.00     0.051 C 
HETATM   27  C   UNK     0     -27.791  16.455  13.975  0.00  0.00    -0.027 A 
HETATM   28  C   UNK     0     -25.476  15.392  11.303  0.00  0.00     0.115 C 
HETATM   29  H   UNK     0     -24.828  18.005  10.107  0.00  0.00     0.165 HD
HETATM   30  H   UNK     0     -23.690  19.846  12.721  0.00  0.00     0.165 HD
HETATM   31  H   UNK     0     -25.771  19.732  13.629  0.00  0.00     0.165 HD
HETATM   32  H   UNK     0     -26.952  17.935  11.113  0.00  0.00     0.165 HD
ENDROOT
BRANCH   6  33
HETATM   33  C   UNK     0     -20.583  16.581  11.694  0.00  0.00     0.051 C 
BRANCH  33  34
HETATM   34  C   UNK     0     -20.331  17.099  13.090  0.00  0.00     0.114 C 
BRANCH  34  35
HETATM   35  C   UNK     0     -19.243  18.114  13.001  0.00  0.00     0.139 C 
HETATM   36  O   UNK     0     -18.637  18.492  14.046  0.00  0.00    -0.650 OA
BRANCH  35  37
HETATM   37  O   UNK     0     -18.845  18.682  11.797  0.00  0.00    -0.776 OA
HETATM   38  H   UNK     0     -18.423  18.137  11.062  0.00  0.00     0.167 HD
ENDBRANCH  35  37
ENDBRANCH  34  35
ENDBRANCH  33  34
ENDBRANCH   6  33
BRANCH  27  39
HETATM   39  C   UNK     0     -28.511  16.193  15.251  0.00  0.00     0.051 C 
BRANCH  39  40
HETATM   40  C   UNK     0     -27.961  16.753  16.486  0.00  0.00     0.114 C 
BRANCH  40  41
HETATM   41  C   UNK     0     -26.596  17.220  16.579  0.00  0.00     0.139 C 
HETATM   42  O   UNK     0     -26.257  18.391  16.362  0.00  0.00    -0.650 OA
BRANCH  41  43
HETATM   43  O   UNK     0     -25.573  16.296  16.939  0.00  0.00    -0.776 OA
HETATM   44  H   UNK     0     -25.605  15.419  16.434  0.00  0.00     0.167 HD
ENDBRANCH  41  43
ENDBRANCH  40  41
ENDBRANCH  39  40
ENDBRANCH  27  39
BRANCH  11  45
HETATM   45  C   UNK     0     -23.922  23.733  10.013  0.00  0.00     0.051 C 
BRANCH  45  46
HETATM   46  C   UNK     0     -22.870  24.743  10.291  0.00  0.00     0.114 C 
BRANCH  46  47
HETATM   47  C   UNK     0     -22.378  25.242   8.974  0.00  0.00     0.139 C 
HETATM   48  O   UNK     0     -23.020  24.955   7.955  0.00  0.00    -0.650 OA
BRANCH  47  49
HETATM   49  O   UNK     0     -21.238  26.001   8.892  0.00  0.00    -0.776 OA
HETATM   50  H   UNK     0     -20.958  26.472   8.024  0.00  0.00     0.167 HD
ENDBRANCH  47  49
ENDBRANCH  46  47
ENDBRANCH  45  46
ENDBRANCH  11  45
BRANCH  18  51
HETATM   51  C   UNK     0     -30.036  21.413  12.462  0.00  0.00     0.051 C 
BRANCH  51  52
HETATM   52  C   UNK     0     -30.275  21.110  10.990  0.00  0.00     0.114 C 
BRANCH  52  53
HETATM   53  C   UNK     0     -30.857  19.769  10.792  0.00  0.00     0.139 C 
HETATM   54  O   UNK     0     -32.049  19.561  11.068  0.00  0.00    -0.650 OA
BRANCH  53  55
HETATM   55  O   UNK     0     -30.071  18.752  10.305  0.00  0.00    -0.776 OA
HETATM   56  H   UNK     0     -30.317  17.791  10.267  0.00  0.00     0.167 HD
ENDBRANCH  53  55
ENDBRANCH  52  53
ENDBRANCH  51  52
ENDBRANCH  18  51
TORSDOF 16
ENDMDL
MODEL 14
REMARK VINA RESULT:      -7.5     13.477     17.731
REMARK  16 active torsions:
REMARK  status: ('A' for Active; 'I' for Inactive)
REMARK    1  A    between atoms: C_6  and  C_7 
REMARK    2  A    between atoms: C_7  and  C_8 
REMARK    3  A    between atoms: C_8  and  C_9 
REMARK    4  A    between atoms: C_9  and  O_11 
REMARK    5  A    between atoms: C_16  and  C_17 
REMARK    6  A    between atoms: C_17  and  C_18 
REMARK    7  A    between atoms: C_18  and  C_19 
REMARK    8  A    between atoms: C_19  and  O_21 
REMARK    9  A    between atoms: C_28  and  C_29 
REMARK   10  A    between atoms: C_29  and  C_30 
REMARK   11  A    between atoms: C_30  and  C_31 
REMARK   12  A    between atoms: C_31  and  O_33 
REMARK   13  A    between atoms: C_42  and  C_43 
REMARK   14  A    between atoms: C_43  and  C_44 
REMARK   15  A    between atoms: C_44  and  C_45 
REMARK   16  A    between atoms: C_45  and  O_47 
ROOT
HETATM    1  C   UNK     0     -42.293  20.946  -5.703  0.00  0.00     0.051 C 
HETATM    2  C   UNK     0     -40.971  21.001  -4.965  0.00  0.00    -0.031 A 
HETATM    3  C   UNK     0     -40.705  21.406  -3.667  0.00  0.00     0.021 A 
HETATM    4  N   UNK     0     -39.372  21.318  -3.442  0.00  0.00    -0.361 N 
HETATM    5  C   UNK     0     -38.785  20.857  -4.565  0.00  0.00     0.022 A 
HETATM    6  C   UNK     0     -39.756  20.651  -5.539  0.00  0.00    -0.027 A 
HETATM    7  C   UNK     0     -37.353  20.496  -4.812  0.00  0.00     0.115 C 
HETATM    8  C   UNK     0     -36.647  19.723  -3.712  0.00  0.00     0.021 A 
HETATM    9  N   UNK     0     -37.148  18.786  -2.893  0.00  0.00    -0.361 N 
HETATM   10  C   UNK     0     -36.186  18.440  -2.012  0.00  0.00     0.022 A 
HETATM   11  C   UNK     0     -35.030  19.169  -2.276  0.00  0.00    -0.027 A 
HETATM   12  C   UNK     0     -35.313  19.979  -3.346  0.00  0.00    -0.031 A 
HETATM   13  C   UNK     0     -34.346  20.948  -3.988  0.00  0.00     0.051 C 
HETATM   14  C   UNK     0     -36.333  17.453  -0.857  0.00  0.00     0.115 C 
HETATM   15  C   UNK     0     -37.386  17.853   0.164  0.00  0.00     0.021 A 
HETATM   16  N   UNK     0     -38.697  18.071  -0.050  0.00  0.00    -0.361 N 
HETATM   17  C   UNK     0     -39.267  18.472   1.088  0.00  0.00     0.022 A 
HETATM   18  C   UNK     0     -38.281  18.509   2.095  0.00  0.00    -0.027 A 
HETATM   19  C   UNK     0     -37.108  18.118   1.503  0.00  0.00    -0.031 A 
HETATM   20  C   UNK     0     -35.792  17.982   2.247  0.00  0.00     0.051 C 
HETATM   21  C   UNK     0     -40.688  18.909   1.363  0.00  0.00     0.115 C 
HETATM   22  C   UNK     0     -41.419  19.640   0.261  0.00  0.00     0.022 A 
HETATM   23  N   UNK     0     -40.943  20.575  -0.572  0.00  0.00    -0.361 N 
HETATM   24  C   UNK     0     -41.893  20.847  -1.489  0.00  0.00     0.021 A 
HETATM   25  C   UNK     0     -43.011  20.076  -1.235  0.00  0.00    -0.031 A 
HETATM   26  C   UNK     0     -44.340  20.056  -1.961  0.00  0.00     0.051 C 
HETATM   27  C   UNK     0     -42.731  19.295  -0.119  0.00  0.00    -0.027 A 
HETATM   28  C   UNK     0     -41.787  21.771  -2.690  0.00  0.00     0.115 C 
HETATM   29  H   UNK     0     -38.851  21.620  -2.503  0.00  0.00     0.165 HD
HETATM   30  H   UNK     0     -38.166  18.329  -2.967  0.00  0.00     0.165 HD
HETATM   31  H   UNK     0     -39.243  17.892  -1.013  0.00  0.00     0.165 HD
HETATM   32  H   UNK     0     -39.947  21.084  -0.494  0.00  0.00     0.165 HD
ENDROOT
BRANCH   6  33
HETATM   33  C   UNK     0     -39.619  20.155  -6.957  0.00  0.00     0.051 C 
BRANCH  33  34
HETATM   34  C   UNK     0     -39.680  21.305  -7.934  0.00  0.00     0.114 C 
BRANCH  34  35
HETATM   35  C   UNK     0     -40.151  20.758  -9.239  0.00  0.00     0.139 C 
HETATM   36  O   UNK     0     -39.342  20.624 -10.203  0.00  0.00    -0.650 OA
BRANCH  35  37
HETATM   37  O   UNK     0     -41.468  20.373  -9.458  0.00  0.00    -0.776 OA
HETATM   38  H   UNK     0     -41.727  19.762 -10.216  0.00  0.00     0.167 HD
ENDBRANCH  35  37
ENDBRANCH  34  35
ENDBRANCH  33  34
ENDBRANCH   6  33
BRANCH  27  39
HETATM   39  C   UNK     0     -43.729  18.382   0.501  0.00  0.00     0.051 C 
BRANCH  39  40
HETATM   40  C   UNK     0     -43.887  18.411   1.955  0.00  0.00     0.114 C 
BRANCH  40  41
HETATM   41  C   UNK     0     -43.589  17.266   2.786  0.00  0.00     0.139 C 
HETATM   42  O   UNK     0     -42.969  16.272   2.383  0.00  0.00    -0.650 OA
BRANCH  41  43
HETATM   43  O   UNK     0     -44.024  17.263   4.141  0.00  0.00    -0.776 OA
HETATM   44  H   UNK     0     -43.448  16.712   4.766  0.00  0.00     0.167 HD
ENDBRANCH  41  43
ENDBRANCH  40  41
ENDBRANCH  39  40
ENDBRANCH  27  39
BRANCH  11  45
HETATM   45  C   UNK     0     -33.703  19.119  -1.567  0.00  0.00     0.051 C 
BRANCH  45  46
HETATM   46  C   UNK     0     -33.729  19.681  -0.192  0.00  0.00     0.114 C 
BRANCH  46  47
HETATM   47  C   UNK     0     -32.634  20.690  -0.106  0.00  0.00     0.139 C 
HETATM   48  O   UNK     0     -32.581  21.580  -0.966  0.00  0.00    -0.650 OA
BRANCH  47  49
HETATM   49  O   UNK     0     -31.705  20.634   0.901  0.00  0.00    -0.776 OA
HETATM   50  H   UNK     0     -31.970  20.690   1.892  0.00  0.00     0.167 HD
ENDBRANCH  47  49
ENDBRANCH  46  47
ENDBRANCH  45  46
ENDBRANCH  11  45
BRANCH  18  51
HETATM   51  C   UNK     0     -38.453  18.876   3.546  0.00  0.00     0.051 C 
BRANCH  51  52
HETATM   52  C   UNK     0     -38.960  17.624   4.246  0.00  0.00     0.114 C 
BRANCH  52  53
HETATM   53  C   UNK     0     -40.325  17.805   4.776  0.00  0.00     0.139 C 
HETATM   54  O   UNK     0     -40.734  18.941   5.064  0.00  0.00    -0.650 OA
BRANCH  53  55
HETATM   55  O   UNK     0     -41.137  16.711   4.951  0.00  0.00    -0.776 OA
HETATM   56  H   UNK     0     -42.056  16.601   4.591  0.00  0.00     0.167 HD
ENDBRANCH  53  55
ENDBRANCH  52  53
ENDBRANCH  51  52
ENDBRANCH  18  51
TORSDOF 16
ENDMDL
MODEL 15
REMARK VINA RESULT:      -7.5     13.360     18.573
REMARK  16 active torsions:
REMARK  status: ('A' for Active; 'I' for Inactive)
REMARK    1  A    between atoms: C_6  and  C_7 
REMARK    2  A    between atoms: C_7  and  C_8 
REMARK    3  A    between atoms: C_8  and  C_9 
REMARK    4  A    between atoms: C_9  and  O_11 
REMARK    5  A    between atoms: C_16  and  C_17 
REMARK    6  A    between atoms: C_17  and  C_18 
REMARK    7  A    between atoms: C_18  and  C_19 
REMARK    8  A    between atoms: C_19  and  O_21 
REMARK    9  A    between atoms: C_28  and  C_29 
REMARK   10  A    between atoms: C_29  and  C_30 
REMARK   11  A    between atoms: C_30  and  C_31 
REMARK   12  A    between atoms: C_31  and  O_33 
REMARK   13  A    between atoms: C_42  and  C_43 
REMARK   14  A    between atoms: C_43  and  C_44 
REMARK   15  A    between atoms: C_44  and  C_45 
REMARK   16  A    between atoms: C_45  and  O_47 
ROOT
HETATM    1  C   UNK     0     -42.775  21.507  -7.336  0.00  0.00     0.051 C 
HETATM    2  C   UNK     0     -41.601  21.484  -6.378  0.00  0.00    -0.031 A 
HETATM    3  C   UNK     0     -41.519  21.952  -5.076  0.00  0.00     0.021 A 
HETATM    4  N   UNK     0     -40.262  21.751  -4.613  0.00  0.00    -0.361 N 
HETATM    5  C   UNK     0     -39.544  21.156  -5.589  0.00  0.00     0.022 A 
HETATM    6  C   UNK     0     -40.350  20.978  -6.708  0.00  0.00    -0.027 A 
HETATM    7  C   UNK     0     -38.139  20.640  -5.557  0.00  0.00     0.115 C 
HETATM    8  C   UNK     0     -37.720  19.882  -4.310  0.00  0.00     0.021 A 
HETATM    9  N   UNK     0     -38.453  19.058  -3.546  0.00  0.00    -0.361 N 
HETATM   10  C   UNK     0     -37.700  18.683  -2.491  0.00  0.00     0.022 A 
HETATM   11  C   UNK     0     -36.443  19.275  -2.582  0.00  0.00    -0.027 A 
HETATM   12  C   UNK     0     -36.449  20.032  -3.726  0.00  0.00    -0.031 A 
HETATM   13  C   UNK     0     -35.287  20.854  -4.236  0.00  0.00     0.051 C 
HETATM   14  C   UNK     0     -38.149  17.799  -1.331  0.00  0.00     0.115 C 
HETATM   15  C   UNK     0     -39.312  18.371  -0.536  0.00  0.00     0.021 A 
HETATM   16  N   UNK     0     -40.535  18.700  -0.991  0.00  0.00    -0.361 N 
HETATM   17  C   UNK     0     -41.245  19.235   0.006  0.00  0.00     0.022 A 
HETATM   18  C   UNK     0     -40.449  19.246   1.168  0.00  0.00    -0.027 A 
HETATM   19  C   UNK     0     -39.241  18.701   0.816  0.00  0.00    -0.031 A 
HETATM   20  C   UNK     0     -38.095  18.491   1.788  0.00  0.00     0.051 C 
HETATM   21  C   UNK     0     -42.636  19.826  -0.000  0.00  0.00     0.115 C 
HETATM   22  C   UNK     0     -43.083  20.545  -1.251  0.00  0.00     0.022 A 
HETATM   23  N   UNK     0     -42.373  21.368  -2.034  0.00  0.00    -0.361 N 
HETATM   24  C   UNK     0     -43.116  21.666  -3.119  0.00  0.00     0.021 A 
HETATM   25  C   UNK     0     -44.338  21.028  -3.028  0.00  0.00    -0.031 A 
HETATM   26  C   UNK     0     -45.518  21.086  -3.976  0.00  0.00     0.051 C 
HETATM   27  C   UNK     0     -44.341  20.304  -1.841  0.00  0.00    -0.027 A 
HETATM   28  C   UNK     0     -42.707  22.488  -4.329  0.00  0.00     0.115 C 
HETATM   29  H   UNK     0     -39.880  22.065  -3.614  0.00  0.00     0.165 HD
HETATM   30  H   UNK     0     -39.486  18.699  -3.775  0.00  0.00     0.165 HD
HETATM   31  H   UNK     0     -40.924  18.508  -2.025  0.00  0.00     0.165 HD
HETATM   32  H   UNK     0     -41.356  21.781  -1.807  0.00  0.00     0.165 HD
ENDROOT
BRANCH   6  33
HETATM   33  C   UNK     0     -40.026  20.372  -8.050  0.00  0.00     0.051 C 
BRANCH  33  34
HETATM   34  C   UNK     0     -39.560  21.434  -9.018  0.00  0.00     0.114 C 
BRANCH  34  35
HETATM   35  C   UNK     0     -40.022  21.033 -10.378  0.00  0.00     0.139 C 
HETATM   36  O   UNK     0     -41.239  21.158 -10.700  0.00  0.00    -0.650 OA
BRANCH  35  37
HETATM   37  O   UNK     0     -39.162  20.516 -11.339  0.00  0.00    -0.776 OA
HETATM   38  H   UNK     0     -38.216  20.847 -11.443  0.00  0.00     0.167 HD
ENDBRANCH  35  37
ENDBRANCH  34  35
ENDBRANCH  33  34
ENDBRANCH   6  33
BRANCH  27  39
HETATM   39  C   UNK     0     -45.523  19.538  -1.361  0.00  0.00     0.051 C 
BRANCH  39  40
HETATM   40  C   UNK     0     -45.571  18.100  -1.621  0.00  0.00     0.114 C 
BRANCH  40  41
HETATM   41  C   UNK     0     -46.717  17.465  -2.233  0.00  0.00     0.139 C 
HETATM   42  O   UNK     0     -47.755  17.188  -1.616  0.00  0.00    -0.650 OA
BRANCH  41  43
HETATM   43  O   UNK     0     -46.667  17.134  -3.616  0.00  0.00    -0.776 OA
HETATM   44  H   UNK     0     -47.074  17.831  -4.229  0.00  0.00     0.167 HD
ENDBRANCH  41  43
ENDBRANCH  40  41
ENDBRANCH  39  40
ENDBRANCH  27  39
BRANCH  11  45
HETATM   45  C   UNK     0     -35.271  19.147  -1.647  0.00  0.00     0.051 C 
BRANCH  45  46
HETATM   46  C   UNK     0     -34.476  17.907  -1.838  0.00  0.00     0.114 C 
BRANCH  46  47
HETATM   47  C   UNK     0     -34.462  17.185  -0.534  0.00  0.00     0.139 C 
HETATM   48  O   UNK     0     -35.190  16.191  -0.399  0.00  0.00    -0.650 OA
BRANCH  47  49
HETATM   49  O   UNK     0     -33.663  17.612   0.497  0.00  0.00    -0.776 OA
HETATM   50  H   UNK     0     -33.854  17.361   1.474  0.00  0.00     0.167 HD
ENDBRANCH  47  49
ENDBRANCH  46  47
ENDBRANCH  45  46
ENDBRANCH  11  45
BRANCH  18  51
HETATM   51  C   UNK     0     -40.826  19.729   2.545  0.00  0.00     0.051 C 
BRANCH  51  52
HETATM   52  C   UNK     0     -41.596  18.592   3.200  0.00  0.00     0.114 C 
BRANCH  52  53
HETATM   53  C   UNK     0     -40.866  18.026   4.350  0.00  0.00     0.139 C 
HETATM   54  O   UNK     0     -39.896  18.632   4.831  0.00  0.00    -0.650 OA
BRANCH  53  55
HETATM   55  O   UNK     0     -41.265  16.824   4.883  0.00  0.00    -0.776 OA
HETATM   56  H   UNK     0     -40.696  16.019   5.000  0.00  0.00     0.167 HD
ENDBRANCH  53  55
ENDBRANCH  52  53
ENDBRANCH  51  52
ENDBRANCH  18  51
TORSDOF 16
ENDMDL
MODEL 16
REMARK VINA RESULT:      -7.4     12.063     17.293
REMARK  16 active torsions:
REMARK  status: ('A' for Active; 'I' for Inactive)
REMARK    1  A    between atoms: C_6  and  C_7 
REMARK    2  A    between atoms: C_7  and  C_8 
REMARK    3  A    between atoms: C_8  and  C_9 
REMARK    4  A    between atoms: C_9  and  O_11 
REMARK    5  A    between atoms: C_16  and  C_17 
REMARK    6  A    between atoms: C_17  and  C_18 
REMARK    7  A    between atoms: C_18  and  C_19 
REMARK    8  A    between atoms: C_19  and  O_21 
REMARK    9  A    between atoms: C_28  and  C_29 
REMARK   10  A    between atoms: C_29  and  C_30 
REMARK   11  A    between atoms: C_30  and  C_31 
REMARK   12  A    between atoms: C_31  and  O_33 
REMARK   13  A    between atoms: C_42  and  C_43 
REMARK   14  A    between atoms: C_43  and  C_44 
REMARK   15  A    between atoms: C_44  and  C_45 
REMARK   16  A    between atoms: C_45  and  O_47 
ROOT
HETATM    1  C   UNK     0     -33.553  20.479  -2.059  0.00  0.00     0.051 C 
HETATM    2  C   UNK     0     -34.762  20.428  -1.148  0.00  0.00    -0.031 A 
HETATM    3  C   UNK     0     -35.872  21.257  -1.112  0.00  0.00     0.021 A 
HETATM    4  N   UNK     0     -36.690  20.855  -0.110  0.00  0.00    -0.361 N 
HETATM    5  C   UNK     0     -36.130  19.783   0.487  0.00  0.00     0.022 A 
HETATM    6  C   UNK     0     -34.921  19.490  -0.135  0.00  0.00    -0.027 A 
HETATM    7  C   UNK     0     -36.669  18.912   1.579  0.00  0.00     0.115 C 
HETATM    8  C   UNK     0     -38.134  18.526   1.482  0.00  0.00     0.021 A 
HETATM    9  N   UNK     0     -38.860  18.265   0.384  0.00  0.00    -0.361 N 
HETATM   10  C   UNK     0     -40.138  18.058   0.765  0.00  0.00     0.022 A 
HETATM   11  C   UNK     0     -40.237  18.180   2.148  0.00  0.00    -0.027 A 
HETATM   12  C   UNK     0     -38.978  18.475   2.606  0.00  0.00    -0.031 A 
HETATM   13  C   UNK     0     -38.604  18.692   4.055  0.00  0.00     0.051 C 
HETATM   14  C   UNK     0     -41.322  17.790  -0.160  0.00  0.00     0.115 C 
HETATM   15  C   UNK     0     -41.601  18.915  -1.144  0.00  0.00     0.021 A 
HETATM   16  N   UNK     0     -40.766  19.423  -2.069  0.00  0.00    -0.361 N 
HETATM   17  C   UNK     0     -41.363  20.446  -2.684  0.00  0.00     0.022 A 
HETATM   18  C   UNK     0     -42.653  20.606  -2.140  0.00  0.00    -0.027 A 
HETATM   19  C   UNK     0     -42.790  19.641  -1.177  0.00  0.00    -0.031 A 
HETATM   20  C   UNK     0     -44.054  19.435  -0.362  0.00  0.00     0.051 C 
HETATM   21  C   UNK     0     -40.833  21.389  -3.740  0.00  0.00     0.115 C 
HETATM   22  C   UNK     0     -39.366  21.746  -3.683  0.00  0.00     0.022 A 
HETATM   23  N   UNK     0     -38.617  22.008  -2.603  0.00  0.00    -0.361 N 
HETATM   24  C   UNK     0     -37.334  22.134  -2.998  0.00  0.00     0.021 A 
HETATM   25  C   UNK     0     -37.256  21.960  -4.366  0.00  0.00    -0.031 A 
HETATM   26  C   UNK     0     -36.045  22.047  -5.271  0.00  0.00     0.051 C 
HETATM   27  C   UNK     0     -38.544  21.711  -4.827  0.00  0.00    -0.027 A 
HETATM   28  C   UNK     0     -36.109  22.341  -2.124  0.00  0.00     0.115 C 
HETATM   29  H   UNK     0     -37.639  21.356   0.193  0.00  0.00     0.165 HD
HETATM   30  H   UNK     0     -38.463  18.176  -0.657  0.00  0.00     0.165 HD
HETATM   31  H   UNK     0     -39.752  19.021  -2.328  0.00  0.00     0.165 HD
HETATM   32  H   UNK     0     -38.995  22.149  -1.557  0.00  0.00     0.165 HD
ENDROOT
BRANCH   6  33
HETATM   33  C   UNK     0     -33.918  18.403   0.157  0.00  0.00     0.051 C 
BRANCH  33  34
HETATM   34  C   UNK     0     -34.408  17.071  -0.357  0.00  0.00     0.114 C 
BRANCH  34  35
HETATM   35  C   UNK     0     -34.031  16.037   0.649  0.00  0.00     0.139 C 
HETATM   36  O   UNK     0     -34.903  15.567   1.437  0.00  0.00    -0.650 OA
BRANCH  35  37
HETATM   37  O   UNK     0     -32.736  15.547   0.771  0.00  0.00    -0.776 OA
HETATM   38  H   UNK     0     -32.160  15.752   1.571  0.00  0.00     0.167 HD
ENDBRANCH  35  37
ENDBRANCH  34  35
ENDBRANCH  33  34
ENDBRANCH   6  33
BRANCH  27  39
HETATM   39  C   UNK     0     -38.870  21.541  -6.269  0.00  0.00     0.051 C 
BRANCH  39  40
HETATM   40  C   UNK     0     -39.512  20.296  -6.694  0.00  0.00     0.114 C 
BRANCH  40  41
HETATM   41  C   UNK     0     -40.749  20.284  -7.441  0.00  0.00     0.139 C 
HETATM   42  O   UNK     0     -41.683  21.068  -7.230  0.00  0.00    -0.650 OA
BRANCH  41  43
HETATM   43  O   UNK     0     -40.919  19.324  -8.479  0.00  0.00    -0.776 OA
HETATM   44  H   UNK     0     -40.615  18.388  -8.239  0.00  0.00     0.167 HD
ENDBRANCH  41  43
ENDBRANCH  40  41
ENDBRANCH  39  40
ENDBRANCH  27  39
BRANCH  11  45
HETATM   45  C   UNK     0     -41.453  18.027   3.022  0.00  0.00     0.051 C 
BRANCH  45  46
HETATM   46  C   UNK     0     -41.395  16.862   3.941  0.00  0.00     0.114 C 
BRANCH  46  47
HETATM   47  C   UNK     0     -41.613  15.638   3.118  0.00  0.00     0.139 C 
HETATM   48  O   UNK     0     -40.815  14.698   3.232  0.00  0.00    -0.650 OA
BRANCH  47  49
HETATM   49  O   UNK     0     -42.673  15.555   2.250  0.00  0.00    -0.776 OA
HETATM   50  H   UNK     0     -43.647  15.615   2.571  0.00  0.00     0.167 HD
ENDBRANCH  47  49
ENDBRANCH  46  47
ENDBRANCH  45  46
ENDBRANCH  11  45
BRANCH  18  51
HETATM   51  C   UNK     0     -43.705  21.612  -2.531  0.00  0.00     0.051 C 
BRANCH  51  52
HETATM   52  C   UNK     0     -44.522  20.964  -3.639  0.00  0.00     0.114 C 
BRANCH  52  53
HETATM   53  C   UNK     0     -44.319  21.637  -4.937  0.00  0.00     0.139 C 
HETATM   54  O   UNK     0     -43.982  22.831  -4.972  0.00  0.00    -0.650 OA
BRANCH  53  55
HETATM   55  O   UNK     0     -44.509  20.936  -6.103  0.00  0.00    -0.776 OA
HETATM   56  H   UNK     0     -44.764  19.979  -6.174  0.00  0.00     0.167 HD
ENDBRANCH  53  55
ENDBRANCH  52  53
ENDBRANCH  51  52
ENDBRANCH  18  51
TORSDOF 16
ENDMDL
MODEL 17
REMARK VINA RESULT:      -7.4     11.659     17.616
REMARK  16 active torsions:
REMARK  status: ('A' for Active; 'I' for Inactive)
REMARK    1  A    between atoms: C_6  and  C_7 
REMARK    2  A    between atoms: C_7  and  C_8 
REMARK    3  A    between atoms: C_8  and  C_9 
REMARK    4  A    between atoms: C_9  and  O_11 
REMARK    5  A    between atoms: C_16  and  C_17 
REMARK    6  A    between atoms: C_17  and  C_18 
REMARK    7  A    between atoms: C_18  and  C_19 
REMARK    8  A    between atoms: C_19  and  O_21 
REMARK    9  A    between atoms: C_28  and  C_29 
REMARK   10  A    between atoms: C_29  and  C_30 
REMARK   11  A    between atoms: C_30  and  C_31 
REMARK   12  A    between atoms: C_31  and  O_33 
REMARK   13  A    between atoms: C_42  and  C_43 
REMARK   14  A    between atoms: C_43  and  C_44 
REMARK   15  A    between atoms: C_44  and  C_45 
REMARK   16  A    between atoms: C_45  and  O_47 
ROOT
HETATM    1  C   UNK     0     -46.792  18.969   2.541  0.00  0.00     0.051 C 
HETATM    2  C   UNK     0     -45.837  19.617   1.559  0.00  0.00    -0.031 A 
HETATM    3  C   UNK     0     -44.598  20.195   1.788  0.00  0.00     0.021 A 
HETATM    4  N   UNK     0     -44.113  20.677   0.619  0.00  0.00    -0.361 N 
HETATM    5  C   UNK     0     -45.012  20.411  -0.351  0.00  0.00     0.022 A 
HETATM    6  C   UNK     0     -46.103  19.751   0.202  0.00  0.00    -0.027 A 
HETATM    7  C   UNK     0     -44.918  20.648  -1.827  0.00  0.00     0.115 C 
HETATM    8  C   UNK     0     -43.591  20.320  -2.487  0.00  0.00     0.021 A 
HETATM    9  N   UNK     0     -42.737  19.326  -2.199  0.00  0.00    -0.361 N 
HETATM   10  C   UNK     0     -41.644  19.474  -2.977  0.00  0.00     0.022 A 
HETATM   11  C   UNK     0     -41.802  20.588  -3.796  0.00  0.00    -0.027 A 
HETATM   12  C   UNK     0     -43.027  21.126  -3.492  0.00  0.00    -0.031 A 
HETATM   13  C   UNK     0     -43.628  22.353  -4.141  0.00  0.00     0.051 C 
HETATM   14  C   UNK     0     -40.389  18.605  -2.943  0.00  0.00     0.115 C 
HETATM   15  C   UNK     0     -39.668  18.618  -1.605  0.00  0.00     0.021 A 
HETATM   16  N   UNK     0     -40.160  18.263  -0.404  0.00  0.00    -0.361 N 
HETATM   17  C   UNK     0     -39.233  18.484   0.532  0.00  0.00     0.022 A 
HETATM   18  C   UNK     0     -38.079  18.998  -0.092  0.00  0.00    -0.027 A 
HETATM   19  C   UNK     0     -38.363  19.076  -1.430  0.00  0.00    -0.031 A 
HETATM   20  C   UNK     0     -37.372  19.549  -2.478  0.00  0.00     0.051 C 
HETATM   21  C   UNK     0     -39.310  18.322   2.033  0.00  0.00     0.115 C 
HETATM   22  C   UNK     0     -40.637  18.602   2.698  0.00  0.00     0.022 A 
HETATM   23  N   UNK     0     -41.510  19.582   2.429  0.00  0.00    -0.361 N 
HETATM   24  C   UNK     0     -42.623  19.370   3.160  0.00  0.00     0.021 A 
HETATM   25  C   UNK     0     -42.459  18.232   3.926  0.00  0.00    -0.031 A 
HETATM   26  C   UNK     0     -43.410  17.613   4.930  0.00  0.00     0.051 C 
HETATM   27  C   UNK     0     -41.196  17.722   3.648  0.00  0.00    -0.027 A 
HETATM   28  C   UNK     0     -43.920  20.160   3.128  0.00  0.00     0.115 C 
HETATM   29  H   UNK     0     -43.157  21.237   0.494  0.00  0.00     0.165 HD
HETATM   30  H   UNK     0     -42.924  18.489  -1.482  0.00  0.00     0.165 HD
HETATM   31  H   UNK     0     -41.165  17.803  -0.216  0.00  0.00     0.165 HD
HETATM   32  H   UNK     0     -41.331  20.458   1.753  0.00  0.00     0.165 HD
ENDROOT
BRANCH   6  33
HETATM   33  C   UNK     0     -47.366  19.246  -0.450  0.00  0.00     0.051 C 
BRANCH  33  34
HETATM   34  C   UNK     0     -47.253  17.773  -0.764  0.00  0.00     0.114 C 
BRANCH  34  35
HETATM   35  C   UNK     0     -47.116  17.641  -2.243  0.00  0.00     0.139 C 
HETATM   36  O   UNK     0     -48.141  17.686  -2.985  0.00  0.00    -0.650 OA
BRANCH  35  37
HETATM   37  O   UNK     0     -45.888  17.469  -2.869  0.00  0.00    -0.776 OA
HETATM   38  H   UNK     0     -45.110  18.086  -2.699  0.00  0.00     0.167 HD
ENDBRANCH  35  37
ENDBRANCH  34  35
ENDBRANCH  33  34
ENDBRANCH   6  33
BRANCH  27  39
HETATM   39  C   UNK     0     -40.631  16.532   4.340  0.00  0.00     0.051 C 
BRANCH  39  40
HETATM   40  C   UNK     0     -40.649  15.248   3.639  0.00  0.00     0.114 C 
BRANCH  40  41
HETATM   41  C   UNK     0     -40.109  14.043   4.226  0.00  0.00     0.139 C 
HETATM   42  O   UNK     0     -38.896  13.814   4.325  0.00  0.00    -0.650 OA
BRANCH  41  43
HETATM   43  O   UNK     0     -41.006  13.054   4.721  0.00  0.00    -0.776 OA
HETATM   44  H   UNK     0     -40.609  12.445   5.427  0.00  0.00     0.167 HD
ENDBRANCH  41  43
ENDBRANCH  40  41
ENDBRANCH  39  40
ENDBRANCH  27  39
BRANCH  11  45
HETATM   45  C   UNK     0     -40.857  21.140  -4.828  0.00  0.00     0.051 C 
BRANCH  45  46
HETATM   46  C   UNK     0     -41.264  20.868  -6.230  0.00  0.00     0.114 C 
BRANCH  46  47
HETATM   47  C   UNK     0     -40.175  20.066  -6.858  0.00  0.00     0.139 C 
HETATM   48  O   UNK     0     -39.052  20.078  -6.334  0.00  0.00    -0.650 OA
BRANCH  47  49
HETATM   49  O   UNK     0     -40.409  19.331  -7.993  0.00  0.00    -0.776 OA
HETATM   50  H   UNK     0     -40.673  18.339  -7.955  0.00  0.00     0.167 HD
ENDBRANCH  47  49
ENDBRANCH  46  47
ENDBRANCH  45  46
ENDBRANCH  11  45
BRANCH  18  51
HETATM   51  C   UNK     0     -36.769  19.375   0.551  0.00  0.00     0.051 C 
BRANCH  51  52
HETATM   52  C   UNK     0     -35.940  18.100   0.606  0.00  0.00     0.114 C 
BRANCH  52  53
HETATM   53  C   UNK     0     -34.735  18.265   1.442  0.00  0.00     0.139 C 
HETATM   54  O   UNK     0     -34.773  17.984   2.650  0.00  0.00    -0.650 OA
BRANCH  53  55
HETATM   55  O   UNK     0     -33.574  18.733   0.875  0.00  0.00    -0.776 OA
HETATM   56  H   UNK     0     -33.476  19.570   0.351  0.00  0.00     0.167 HD
ENDBRANCH  53  55
ENDBRANCH  52  53
ENDBRANCH  51  52
ENDBRANCH  18  51
TORSDOF 16
ENDMDL
MODEL 18
REMARK VINA RESULT:      -7.4     11.437     17.017
REMARK  16 active torsions:
REMARK  status: ('A' for Active; 'I' for Inactive)
REMARK    1  A    between atoms: C_6  and  C_7 
REMARK    2  A    between atoms: C_7  and  C_8 
REMARK    3  A    between atoms: C_8  and  C_9 
REMARK    4  A    between atoms: C_9  and  O_11 
REMARK    5  A    between atoms: C_16  and  C_17 
REMARK    6  A    between atoms: C_17  and  C_18 
REMARK    7  A    between atoms: C_18  and  C_19 
REMARK    8  A    between atoms: C_19  and  O_21 
REMARK    9  A    between atoms: C_28  and  C_29 
REMARK   10  A    between atoms: C_29  and  C_30 
REMARK   11  A    between atoms: C_30  and  C_31 
REMARK   12  A    between atoms: C_31  and  O_33 
REMARK   13  A    between atoms: C_42  and  C_43 
REMARK   14  A    between atoms: C_43  and  C_44 
REMARK   15  A    between atoms: C_44  and  C_45 
REMARK   16  A    between atoms: C_45  and  O_47 
ROOT
HETATM    1  C   UNK     0     -39.842  17.859   4.659  0.00  0.00     0.051 C 
HETATM    2  C   UNK     0     -40.100  18.807   3.506  0.00  0.00    -0.031 A 
HETATM    3  C   UNK     0     -39.197  19.535   2.747  0.00  0.00     0.021 A 
HETATM    4  N   UNK     0     -39.879  20.276   1.841  0.00  0.00    -0.361 N 
HETATM    5  C   UNK     0     -41.196  20.028   2.000  0.00  0.00     0.022 A 
HETATM    6  C   UNK     0     -41.370  19.116   3.035  0.00  0.00    -0.027 A 
HETATM    7  C   UNK     0     -42.360  20.516   1.196  0.00  0.00     0.115 C 
HETATM    8  C   UNK     0     -42.190  20.524  -0.313  0.00  0.00     0.021 A 
HETATM    9  N   UNK     0     -41.525  19.650  -1.084  0.00  0.00    -0.361 N 
HETATM   10  C   UNK     0     -41.561  20.101  -2.356  0.00  0.00     0.022 A 
HETATM   11  C   UNK     0     -42.277  21.293  -2.407  0.00  0.00    -0.027 A 
HETATM   12  C   UNK     0     -42.677  21.566  -1.124  0.00  0.00    -0.031 A 
HETATM   13  C   UNK     0     -43.491  22.767  -0.697  0.00  0.00     0.051 C 
HETATM   14  C   UNK     0     -40.880  19.457  -3.561  0.00  0.00     0.115 C 
HETATM   15  C   UNK     0     -39.368  19.368  -3.438  0.00  0.00     0.021 A 
HETATM   16  N   UNK     0     -38.657  18.745  -2.479  0.00  0.00    -0.361 N 
HETATM   17  C   UNK     0     -37.356  18.958  -2.690  0.00  0.00     0.022 A 
HETATM   18  C   UNK     0     -37.212  19.750  -3.846  0.00  0.00    -0.027 A 
HETATM   19  C   UNK     0     -38.479  19.999  -4.306  0.00  0.00    -0.031 A 
HETATM   20  C   UNK     0     -38.780  20.793  -5.564  0.00  0.00     0.051 C 
HETATM   21  C   UNK     0     -36.157  18.541  -1.868  0.00  0.00     0.115 C 
HETATM   22  C   UNK     0     -36.325  18.486  -0.368  0.00  0.00     0.022 A 
HETATM   23  N   UNK     0     -36.985  19.340   0.425  0.00  0.00    -0.361 N 
HETATM   24  C   UNK     0     -37.002  18.832   1.674  0.00  0.00     0.021 A 
HETATM   25  C   UNK     0     -36.329  17.625   1.687  0.00  0.00    -0.031 A 
HETATM   26  C   UNK     0     -36.048  16.703   2.855  0.00  0.00     0.051 C 
HETATM   27  C   UNK     0     -35.885  17.383   0.392  0.00  0.00    -0.027 A 
HETATM   28  C   UNK     0     -37.709  19.392   2.896  0.00  0.00     0.115 C 
HETATM   29  H   UNK     0     -39.428  20.998   1.122  0.00  0.00     0.165 HD
HETATM   30  H   UNK     0     -41.072  18.688  -0.742  0.00  0.00     0.165 HD
HETATM   31  H   UNK     0     -39.079  18.101  -1.664  0.00  0.00     0.165 HD
HETATM   32  H   UNK     0     -37.408  20.333   0.119  0.00  0.00     0.165 HD
ENDROOT
BRANCH   6  33
HETATM   33  C   UNK     0     -42.634  18.525   3.606  0.00  0.00     0.051 C 
BRANCH  33  34
HETATM   34  C   UNK     0     -43.159  19.375   4.738  0.00  0.00     0.114 C 
BRANCH  34  35
HETATM   35  C   UNK     0     -43.498  18.459   5.865  0.00  0.00     0.139 C 
HETATM   36  O   UNK     0     -42.794  18.455   6.917  0.00  0.00    -0.650 OA
BRANCH  35  37
HETATM   37  O   UNK     0     -44.577  17.584   5.820  0.00  0.00    -0.776 OA
HETATM   38  H   UNK     0     -45.382  17.699   6.414  0.00  0.00     0.167 HD
ENDBRANCH  35  37
ENDBRANCH  34  35
ENDBRANCH  33  34
ENDBRANCH   6  33
BRANCH  27  39
HETATM   39  C   UNK     0     -35.053  16.205   0.027  0.00  0.00     0.051 C 
BRANCH  39  40
HETATM   40  C   UNK     0     -33.656  16.180   0.460  0.00  0.00     0.114 C 
BRANCH  40  41
HETATM   41  C   UNK     0     -33.052  15.006   1.049  0.00  0.00     0.139 C 
HETATM   42  O   UNK     0     -31.855  14.716   0.920  0.00  0.00    -0.650 OA
BRANCH  41  43
HETATM   43  O   UNK     0     -33.863  14.126   1.821  0.00  0.00    -0.776 OA
HETATM   44  H   UNK     0     -34.838  14.393   1.875  0.00  0.00     0.167 HD
ENDBRANCH  41  43
ENDBRANCH  40  41
ENDBRANCH  39  40
ENDBRANCH  27  39
BRANCH  11  45
HETATM   45  C   UNK     0     -42.588  22.155  -3.601  0.00  0.00     0.051 C 
BRANCH  45  46
HETATM   46  C   UNK     0     -43.829  21.771  -4.320  0.00  0.00     0.114 C 
BRANCH  46  47
HETATM   47  C   UNK     0     -43.477  21.622  -5.761  0.00  0.00     0.139 C 
HETATM   48  O   UNK     0     -42.417  22.119  -6.166  0.00  0.00    -0.650 OA
BRANCH  47  49
HETATM   49  O   UNK     0     -44.307  20.950  -6.622  0.00  0.00    -0.776 OA
HETATM   50  H   UNK     0     -44.585  21.342  -7.530  0.00  0.00     0.167 HD
ENDBRANCH  47  49
ENDBRANCH  46  47
ENDBRANCH  45  46
ENDBRANCH  11  45
BRANCH  18  51
HETATM   51  C   UNK     0     -35.936  20.226  -4.490  0.00  0.00     0.051 C 
BRANCH  51  52
HETATM   52  C   UNK     0     -35.667  21.614  -3.928  0.00  0.00     0.114 C 
BRANCH  52  53
HETATM   53  C   UNK     0     -34.277  21.755  -3.454  0.00  0.00     0.139 C 
HETATM   54  O   UNK     0     -33.686  22.840  -3.573  0.00  0.00    -0.650 OA
BRANCH  53  55
HETATM   55  O   UNK     0     -33.641  20.679  -2.883  0.00  0.00    -0.776 OA
HETATM   56  H   UNK     0     -34.002  20.104  -2.159  0.00  0.00     0.167 HD
ENDBRANCH  53  55
ENDBRANCH  52  53
ENDBRANCH  51  52
ENDBRANCH  18  51
TORSDOF 16
ENDMDL
MODEL 19
REMARK VINA RESULT:      -7.2     10.945     16.393
REMARK  16 active torsions:
REMARK  status: ('A' for Active; 'I' for Inactive)
REMARK    1  A    between atoms: C_6  and  C_7 
REMARK    2  A    between atoms: C_7  and  C_8 
REMARK    3  A    between atoms: C_8  and  C_9 
REMARK    4  A    between atoms: C_9  and  O_11 
REMARK    5  A    between atoms: C_16  and  C_17 
REMARK    6  A    between atoms: C_17  and  C_18 
REMARK    7  A    between atoms: C_18  and  C_19 
REMARK    8  A    between atoms: C_19  and  O_21 
REMARK    9  A    between atoms: C_28  and  C_29 
REMARK   10  A    between atoms: C_29  and  C_30 
REMARK   11  A    between atoms: C_30  and  C_31 
REMARK   12  A    between atoms: C_31  and  O_33 
REMARK   13  A    between atoms: C_42  and  C_43 
REMARK   14  A    between atoms: C_43  and  C_44 
REMARK   15  A    between atoms: C_44  and  C_45 
REMARK   16  A    between atoms: C_45  and  O_47 
ROOT
HETATM    1  C   UNK     0     -44.398  20.656   1.640  0.00  0.00     0.051 C 
HETATM    2  C   UNK     0     -43.063  20.994   1.008  0.00  0.00    -0.031 A 
HETATM    3  C   UNK     0     -41.817  21.122   1.600  0.00  0.00     0.021 A 
HETATM    4  N   UNK     0     -40.912  21.467   0.653  0.00  0.00    -0.361 N 
HETATM    5  C   UNK     0     -41.553  21.553  -0.531  0.00  0.00     0.022 A 
HETATM    6  C   UNK     0     -42.901  21.266  -0.345  0.00  0.00    -0.027 A 
HETATM    7  C   UNK     0     -40.998  21.809  -1.897  0.00  0.00     0.115 C 
HETATM    8  C   UNK     0     -39.709  21.091  -2.255  0.00  0.00     0.021 A 
HETATM    9  N   UNK     0     -39.311  19.860  -1.899  0.00  0.00    -0.361 N 
HETATM   10  C   UNK     0     -38.059  19.672  -2.366  0.00  0.00     0.022 A 
HETATM   11  C   UNK     0     -37.642  20.811  -3.050  0.00  0.00    -0.027 A 
HETATM   12  C   UNK     0     -38.677  21.709  -2.983  0.00  0.00    -0.031 A 
HETATM   13  C   UNK     0     -38.675  23.091  -3.596  0.00  0.00     0.051 C 
HETATM   14  C   UNK     0     -37.188  18.439  -2.143  0.00  0.00     0.115 C 
HETATM   15  C   UNK     0     -36.886  18.156  -0.680  0.00  0.00     0.021 A 
HETATM   16  N   UNK     0     -37.767  17.932   0.313  0.00  0.00    -0.361 N 
HETATM   17  C   UNK     0     -37.105  17.795   1.464  0.00  0.00     0.022 A 
HETATM   18  C   UNK     0     -35.726  17.927   1.207  0.00  0.00    -0.027 A 
HETATM   19  C   UNK     0     -35.602  18.151  -0.139  0.00  0.00    -0.031 A 
HETATM   20  C   UNK     0     -34.270  18.315  -0.848  0.00  0.00     0.051 C 
HETATM   21  C   UNK     0     -37.629  17.603   2.869  0.00  0.00     0.115 C 
HETATM   22  C   UNK     0     -38.934  18.276   3.225  0.00  0.00     0.022 A 
HETATM   23  N   UNK     0     -39.357  19.499   2.882  0.00  0.00    -0.361 N 
HETATM   24  C   UNK     0     -40.635  19.634   3.290  0.00  0.00     0.021 A 
HETATM   25  C   UNK     0     -41.041  18.474   3.921  0.00  0.00    -0.031 A 
HETATM   26  C   UNK     0     -42.368  18.161   4.579  0.00  0.00     0.051 C 
HETATM   27  C   UNK     0     -39.969  17.589   3.892  0.00  0.00    -0.027 A 
HETATM   28  C   UNK     0     -41.569  20.808   3.048  0.00  0.00     0.115 C 
HETATM   29  H   UNK     0     -39.834  21.686   0.835  0.00  0.00     0.165 HD
HETATM   30  H   UNK     0     -39.931  19.101  -1.361  0.00  0.00     0.165 HD
HETATM   31  H   UNK     0     -38.876  17.821   0.192  0.00  0.00     0.165 HD
HETATM   32  H   UNK     0     -38.744  20.295   2.386  0.00  0.00     0.165 HD
ENDROOT
BRANCH   6  33
HETATM   33  C   UNK     0     -44.032  21.234  -1.341  0.00  0.00     0.051 C 
BRANCH  33  34
HETATM   34  C   UNK     0     -43.874  20.072  -2.293  0.00  0.00     0.114 C 
BRANCH  34  35
HETATM   35  C   UNK     0     -44.349  18.848  -1.587  0.00  0.00     0.139 C 
HETATM   36  O   UNK     0     -43.518  18.060  -1.049  0.00  0.00    -0.650 OA
BRANCH  35  37
HETATM   37  O   UNK     0     -45.695  18.517  -1.484  0.00  0.00    -0.776 OA
HETATM   38  H   UNK     0     -46.072  18.060  -0.669  0.00  0.00     0.167 HD
ENDBRANCH  35  37
ENDBRANCH  34  35
ENDBRANCH  33  34
ENDBRANCH   6  33
BRANCH  27  39
HETATM   39  C   UNK     0     -40.004  16.251   4.542  0.00  0.00     0.051 C 
BRANCH  39  40
HETATM   40  C   UNK     0     -40.339  15.089   3.720  0.00  0.00     0.114 C 
BRANCH  40  41
HETATM   41  C   UNK     0     -40.090  13.735   4.161  0.00  0.00     0.139 C 
HETATM   42  O   UNK     0     -40.989  12.937   4.460  0.00  0.00    -0.650 OA
BRANCH  41  43
HETATM   43  O   UNK     0     -38.745  13.278   4.263  0.00  0.00    -0.776 OA
HETATM   44  H   UNK     0     -38.631  12.429   4.805  0.00  0.00     0.167 HD
ENDBRANCH  41  43
ENDBRANCH  40  41
ENDBRANCH  39  40
ENDBRANCH  27  39
BRANCH  11  45
HETATM   45  C   UNK     0     -36.331  21.065  -3.745  0.00  0.00     0.051 C 
BRANCH  45  46
HETATM   46  C   UNK     0     -35.209  21.385  -2.826  0.00  0.00     0.114 C 
BRANCH  46  47
HETATM   47  C   UNK     0     -33.943  21.111  -3.563  0.00  0.00     0.139 C 
HETATM   48  O   UNK     0     -33.054  21.975  -3.555  0.00  0.00    -0.650 OA
BRANCH  47  49
HETATM   49  O   UNK     0     -33.763  19.930  -4.238  0.00  0.00    -0.776 OA
HETATM   50  H   UNK     0     -34.326  19.682  -5.061  0.00  0.00     0.167 HD
ENDBRANCH  47  49
ENDBRANCH  46  47
ENDBRANCH  45  46
ENDBRANCH  11  45
BRANCH  18  51
HETATM   51  C   UNK     0     -34.587  17.823   2.189  0.00  0.00     0.051 C 
BRANCH  51  52
HETATM   52  C   UNK     0     -34.219  16.349   2.260  0.00  0.00     0.114 C 
BRANCH  52  53
HETATM   53  C   UNK     0     -34.455  15.788   3.604  0.00  0.00     0.139 C 
HETATM   54  O   UNK     0     -34.516  16.540   4.590  0.00  0.00    -0.650 OA
BRANCH  53  55
HETATM   55  O   UNK     0     -34.603  14.431   3.758  0.00  0.00    -0.776 OA
HETATM   56  H   UNK     0     -35.259  13.978   4.351  0.00  0.00     0.167 HD
ENDBRANCH  53  55
ENDBRANCH  52  53
ENDBRANCH  51  52
ENDBRANCH  18  51
TORSDOF 16
ENDMDL
MODEL 20
REMARK VINA RESULT:      -7.1     13.175     18.375
REMARK  16 active torsions:
REMARK  status: ('A' for Active; 'I' for Inactive)
REMARK    1  A    between atoms: C_6  and  C_7 
REMARK    2  A    between atoms: C_7  and  C_8 
REMARK    3  A    between atoms: C_8  and  C_9 
REMARK    4  A    between atoms: C_9  and  O_11 
REMARK    5  A    between atoms: C_16  and  C_17 
REMARK    6  A    between atoms: C_17  and  C_18 
REMARK    7  A    between atoms: C_18  and  C_19 
REMARK    8  A    between atoms: C_19  and  O_21 
REMARK    9  A    between atoms: C_28  and  C_29 
REMARK   10  A    between atoms: C_29  and  C_30 
REMARK   11  A    between atoms: C_30  and  C_31 
REMARK   12  A    between atoms: C_31  and  O_33 
REMARK   13  A    between atoms: C_42  and  C_43 
REMARK   14  A    between atoms: C_43  and  C_44 
REMARK   15  A    between atoms: C_44  and  C_45 
REMARK   16  A    between atoms: C_45  and  O_47 
ROOT
HETATM    1  C   UNK     0     -42.753  18.082   2.031  0.00  0.00     0.051 C 
HETATM    2  C   UNK     0     -41.477  18.136   1.217  0.00  0.00    -0.031 A 
HETATM    3  C   UNK     0     -41.300  18.010  -0.152  0.00  0.00     0.021 A 
HETATM    4  N   UNK     0     -39.979  18.092  -0.436  0.00  0.00    -0.361 N 
HETATM    5  C   UNK     0     -39.310  18.276   0.721  0.00  0.00     0.022 A 
HETATM    6  C   UNK     0     -40.216  18.306   1.776  0.00  0.00    -0.027 A 
HETATM    7  C   UNK     0     -37.851  18.520   0.949  0.00  0.00     0.115 C 
HETATM    8  C   UNK     0     -37.164  19.483  -0.003  0.00  0.00     0.021 A 
HETATM    9  N   UNK     0     -37.659  20.594  -0.570  0.00  0.00    -0.361 N 
HETATM   10  C   UNK     0     -36.728  21.084  -1.416  0.00  0.00     0.022 A 
HETATM   11  C   UNK     0     -35.598  20.271  -1.386  0.00  0.00    -0.027 A 
HETATM   12  C   UNK     0     -35.866  19.260  -0.498  0.00  0.00    -0.031 A 
HETATM   13  C   UNK     0     -34.918  18.138  -0.139  0.00  0.00     0.051 C 
HETATM   14  C   UNK     0     -36.884  22.301  -2.322  0.00  0.00     0.115 C 
HETATM   15  C   UNK     0     -38.009  22.173  -3.337  0.00  0.00     0.021 A 
HETATM   16  N   UNK     0     -39.316  21.966  -3.093  0.00  0.00    -0.361 N 
HETATM   17  C   UNK     0     -39.965  21.842  -4.253  0.00  0.00     0.022 A 
HETATM   18  C   UNK     0     -39.037  21.985  -5.304  0.00  0.00    -0.027 A 
HETATM   19  C   UNK     0     -37.816  22.193  -4.717  0.00  0.00    -0.031 A 
HETATM   20  C   UNK     0     -36.536  22.434  -5.496  0.00  0.00     0.051 C 
HETATM   21  C   UNK     0     -41.419  21.531  -4.525  0.00  0.00     0.115 C 
HETATM   22  C   UNK     0     -42.128  20.609  -3.560  0.00  0.00     0.022 A 
HETATM   23  N   UNK     0     -41.658  19.498  -2.977  0.00  0.00    -0.361 N 
HETATM   24  C   UNK     0     -42.571  19.072  -2.081  0.00  0.00     0.021 A 
HETATM   25  C   UNK     0     -43.659  19.923  -2.095  0.00  0.00    -0.031 A 
HETATM   26  C   UNK     0     -44.946  19.838  -1.300  0.00  0.00     0.051 C 
HETATM   27  C   UNK     0     -43.399  20.914  -3.034  0.00  0.00    -0.027 A 
HETATM   28  C   UNK     0     -42.450  17.907  -1.114  0.00  0.00     0.115 C 
HETATM   29  H   UNK     0     -39.524  17.980  -1.448  0.00  0.00     0.165 HD
HETATM   30  H   UNK     0     -38.646  21.064  -0.338  0.00  0.00     0.165 HD
HETATM   31  H   UNK     0     -39.800  21.954  -2.082  0.00  0.00     0.165 HD
HETATM   32  H   UNK     0     -40.695  18.980  -3.224  0.00  0.00     0.165 HD
ENDROOT
BRANCH   6  33
HETATM   33  C   UNK     0     -39.979  18.478   3.255  0.00  0.00     0.051 C 
BRANCH  33  34
HETATM   34  C   UNK     0     -39.495  17.188   3.873  0.00  0.00     0.114 C 
BRANCH  34  35
HETATM   35  C   UNK     0     -40.624  16.620   4.664  0.00  0.00     0.139 C 
HETATM   36  O   UNK     0     -41.399  17.386   5.307  0.00  0.00    -0.650 OA
BRANCH  35  37
HETATM   37  O   UNK     0     -40.879  15.256   4.733  0.00  0.00    -0.776 OA
HETATM   38  H   UNK     0     -40.168  14.592   4.992  0.00  0.00     0.167 HD
ENDBRANCH  35  37
ENDBRANCH  34  35
ENDBRANCH  33  34
ENDBRANCH   6  33
BRANCH  27  39
HETATM   39  C   UNK     0     -44.379  21.979  -3.382  0.00  0.00     0.051 C 
BRANCH  39  40
HETATM   40  C   UNK     0     -45.208  21.796  -4.574  0.00  0.00     0.114 C 
BRANCH  40  41
HETATM   41  C   UNK     0     -46.391  20.965  -4.569  0.00  0.00     0.139 C 
HETATM   42  O   UNK     0     -47.296  21.069  -3.730  0.00  0.00    -0.650 OA
BRANCH  41  43
HETATM   43  O   UNK     0     -46.541  19.970  -5.576  0.00  0.00    -0.776 OA
HETATM   44  H   UNK     0     -47.419  20.011  -6.079  0.00  0.00     0.167 HD
ENDBRANCH  41  43
ENDBRANCH  40  41
ENDBRANCH  39  40
ENDBRANCH  27  39
BRANCH  11  45
HETATM   45  C   UNK     0     -34.310  20.420  -2.150  0.00  0.00     0.051 C 
BRANCH  45  46
HETATM   46  C   UNK     0     -34.451  20.243  -3.618  0.00  0.00     0.114 C 
BRANCH  46  47
HETATM   47  C   UNK     0     -35.183  18.963  -3.840  0.00  0.00     0.139 C 
HETATM   48  O   UNK     0     -36.339  19.011  -4.284  0.00  0.00    -0.650 OA
BRANCH  47  49
HETATM   49  O   UNK     0     -34.592  17.757  -3.557  0.00  0.00    -0.776 OA
HETATM   50  H   UNK     0     -33.919  17.647  -2.790  0.00  0.00     0.167 HD
ENDBRANCH  47  49
ENDBRANCH  46  47
ENDBRANCH  45  46
ENDBRANCH  11  45
BRANCH  18  51
HETATM   51  C   UNK     0     -39.303  21.946  -6.786  0.00  0.00     0.051 C 
BRANCH  51  52
HETATM   52  C   UNK     0     -39.433  20.476  -7.158  0.00  0.00     0.114 C 
BRANCH  52  53
HETATM   53  C   UNK     0     -40.181  20.292  -8.417  0.00  0.00     0.139 C 
HETATM   54  O   UNK     0     -39.582  20.308  -9.504  0.00  0.00    -0.650 OA
BRANCH  53  55
HETATM   55  O   UNK     0     -41.541  20.105  -8.377  0.00  0.00    -0.776 OA
HETATM   56  H   UNK     0     -42.085  19.624  -9.055  0.00  0.00     0.167 HD
ENDBRANCH  53  55
ENDBRANCH  52  53
ENDBRANCH  51  52
ENDBRANCH  18  51
TORSDOF 16
ENDMDL
