MODEL 1
REMARK VINA RESULT:     -10.0      0.000      0.000
REMARK  28 active torsions:
REMARK  status: ('A' for Active; 'I' for Inactive)
REMARK    1  A    between atoms: C_2  and  O_3 
REMARK    2  A    between atoms: C_2  and  C_4 
REMARK    3  A    between atoms: C_4  and  C_5 
REMARK    4  A    between atoms: C_5  and  C_6 
REMARK    5  A    between atoms: C_7  and  C_8 
REMARK    6  A    between atoms: C_8  and  C_9 
REMARK    7  A    between atoms: C_9  and  O_11 
REMARK    8  A    between atoms: C_28  and  C_29 
REMARK    9  A    between atoms: C_29  and  C_30 
REMARK   10  A    between atoms: C_30  and  O_32 
REMARK   11  A    between atoms: C_33  and  C_34 
REMARK   12  A    between atoms: C_34  and  C_35 
REMARK   13  A    between atoms: C_35  and  C_36 
REMARK   14  A    between atoms: C_36  and  O_38 
REMARK   15  A    between atoms: C_39  and  C_40 
REMARK   16  A    between atoms: C_40  and  C_41 
REMARK   17  A    between atoms: C_41  and  C_42 
REMARK   18  A    between atoms: C_42  and  O_44 
REMARK   19  A    between atoms: C_45  and  C_46 
REMARK   20  A    between atoms: C_46  and  C_47 
REMARK   21  A    between atoms: C_47  and  O_49 
REMARK   22  A    between atoms: C_50  and  C_51 
REMARK   23  A    between atoms: C_51  and  C_52 
REMARK   24  A    between atoms: C_52  and  O_54 
REMARK   25  A    between atoms: C_55  and  C_56 
REMARK   26  A    between atoms: C_56  and  C_57 
REMARK   27  A    between atoms: C_57  and  C_58 
REMARK   28  A    between atoms: C_58  and  O_60 
ROOT
ATOM      1  O   UNK d   0       9.153 -17.442  -8.428  0.00  0.00    -0.650 OA
ATOM      2  C   UNK d   0       8.013 -17.120  -8.830  0.00  0.00     0.139 C 
ENDROOT
BRANCH   2   3
ATOM      3  O   UNK d   0       7.301 -17.997  -9.612  0.00  0.00    -0.776 OA
ATOM      4  H   UNK d   0       6.700 -17.661 -10.368  0.00  0.00     0.167 HD
ENDBRANCH   2   3
BRANCH   2   5
ATOM      5  C   UNK d   0       7.437 -15.795  -8.462  0.00  0.00     0.115 C 
BRANCH   5   6
ATOM      6  C   UNK d   0       8.026 -14.715  -9.328  0.00  0.00     0.052 C 
BRANCH   6   7
ATOM      7  C   UNK d   0       8.898 -13.758  -8.552  0.00  0.00    -0.020 A 
ATOM      8  C   UNK d   0       9.515 -12.695  -9.002  0.00  0.00    -0.011 A 
ATOM      9  C   UNK d   0      10.237 -12.096  -7.892  0.00  0.00     0.067 A 
ATOM     10  C   UNK d   0      11.050 -10.967  -7.705  0.00  0.00     0.062 C 
ATOM     11  N   UNK d   0      10.009 -12.863  -6.805  0.00  0.00    -0.248 NA
ATOM     12  C   UNK d   0      11.436 -10.394  -6.488  0.00  0.00     0.041 A 
ATOM     13  N   UNK d   0      11.852 -10.954  -5.337  0.00  0.00    -0.355 N 
ATOM     14  C   UNK d   0      11.353  -8.997  -6.338  0.00  0.00    -0.022 A 
ATOM     15  C   UNK d   0      12.029  -9.949  -4.457  0.00  0.00     0.042 A 
ATOM     16  H   UNK d   0      12.037 -12.035  -5.155  0.00  0.00     0.166 HD
ATOM     17  C   UNK d   0      12.454  -9.976  -3.114  0.00  0.00     0.062 C 
ATOM     18  C   UNK d   0      11.725  -8.708  -5.049  0.00  0.00    -0.013 A 
ATOM     19  C   UNK d   0      12.067 -10.817  -2.103  0.00  0.00     0.067 A 
ATOM     20  N   UNK d   0      11.341 -11.884  -2.449  0.00  0.00    -0.248 NA
ATOM     21  C   UNK d   0      12.229 -10.860  -0.659  0.00  0.00    -0.011 A 
ATOM     22  C   UNK d   0      11.017 -12.620  -1.336  0.00  0.00     0.066 A 
ATOM     23  C   UNK d   0      10.292 -13.782  -1.555  0.00  0.00     0.062 C 
ATOM     24  C   UNK d   0      11.609 -11.915  -0.216  0.00  0.00    -0.020 A 
ATOM     25  C   UNK d   0       9.926 -14.348  -2.786  0.00  0.00     0.041 A 
ATOM     26  N   UNK d   0       9.497 -13.793  -3.926  0.00  0.00    -0.355 N 
ATOM     27  C   UNK d   0      10.013 -15.749  -2.938  0.00  0.00    -0.022 A 
ATOM     28  C   UNK d   0       9.312 -14.793  -4.802  0.00  0.00     0.042 A 
ATOM     29  H   UNK d   0       9.302 -12.707  -4.104  0.00  0.00     0.166 HD
ATOM     30  C   UNK d   0       8.881 -14.782  -6.138  0.00  0.00     0.062 C 
ATOM     31  C   UNK d   0       9.628 -16.039  -4.210  0.00  0.00    -0.013 A 
ATOM     32  C   UNK d   0       9.210 -13.878  -7.135  0.00  0.00     0.066 A 
BRANCH   8  33
ATOM     33  C   UNK d   0       9.499 -12.182 -10.385  0.00  0.00     0.151 C 
BRANCH  33  34
ATOM     34  C   UNK d   0      10.753 -11.503 -10.755  0.00  0.00     0.143 C 
ATOM     35  O   UNK d   0      10.766 -10.294 -11.028  0.00  0.00    -0.650 OA
BRANCH  34  36
ATOM     36  O   UNK d   0      11.924 -12.224 -10.800  0.00  0.00    -0.776 OA
ATOM     37  H   UNK d   0      12.295 -12.585 -11.690  0.00  0.00     0.167 HD
ENDBRANCH  34  36
ENDBRANCH  33  34
ENDBRANCH   8  33
BRANCH  31  38
ATOM     38  C   UNK d   0       9.573 -17.415  -4.834  0.00  0.00     0.151 C 
BRANCH  38  39
ATOM     39  C   UNK d   0       8.294 -18.065  -4.648  0.00  0.00     0.143 C 
ATOM     40  O   UNK d   0       7.318 -17.836  -5.383  0.00  0.00    -0.650 OA
BRANCH  39  41
ATOM     41  O   UNK d   0       8.136 -18.985  -3.612  0.00  0.00    -0.776 OA
ATOM     42  H   UNK d   0       8.177 -18.616  -2.657  0.00  0.00     0.167 HD
ENDBRANCH  39  41
ENDBRANCH  38  39
ENDBRANCH  31  38
BRANCH  27  43
ATOM     43  C   UNK d   0      10.438 -16.797  -1.939  0.00  0.00     0.052 C 
BRANCH  43  44
ATOM     44  C   UNK d   0      11.882 -16.706  -1.565  0.00  0.00     0.115 C 
BRANCH  44  45
ATOM     45  C   UNK d   0      12.657 -16.862  -2.824  0.00  0.00     0.139 C 
ATOM     46  O   UNK d   0      13.273 -15.861  -3.268  0.00  0.00    -0.650 OA
BRANCH  45  47
ATOM     47  O   UNK d   0      12.729 -18.053  -3.514  0.00  0.00    -0.776 OA
ATOM     48  H   UNK d   0      13.127 -18.126  -4.464  0.00  0.00     0.167 HD
ENDBRANCH  45  47
ENDBRANCH  44  45
ENDBRANCH  43  44
ENDBRANCH  27  43
BRANCH  24  49
ATOM     49  C   UNK d   0      11.551 -12.363   1.186  0.00  0.00     0.052 C 
BRANCH  49  50
ATOM     50  C   UNK d   0      10.506 -11.584   1.943  0.00  0.00     0.115 C 
BRANCH  50  51
ATOM     51  C   UNK d   0      10.812 -11.228   3.322  0.00  0.00     0.139 C 
ATOM     52  O   UNK d   0      11.132 -10.066   3.665  0.00  0.00    -0.650 OA
BRANCH  51  53
ATOM     53  O   UNK d   0      10.755 -12.199   4.310  0.00  0.00    -0.776 OA
ATOM     54  H   UNK d   0      10.519 -11.914   5.244  0.00  0.00     0.167 HD
ENDBRANCH  51  53
ENDBRANCH  50  51
ENDBRANCH  49  50
ENDBRANCH  24  49
BRANCH  21  55
ATOM     55  C   UNK d   0      12.991  -9.844   0.125  0.00  0.00     0.151 C 
BRANCH  55  56
ATOM     56  C   UNK d   0      14.439 -10.105   0.106  0.00  0.00     0.143 C 
ATOM     57  O   UNK d   0      14.999 -10.737  -0.812  0.00  0.00    -0.650 OA
BRANCH  56  58
ATOM     58  O   UNK d   0      15.201  -9.617   1.166  0.00  0.00    -0.776 OA
ATOM     59  H   UNK d   0      16.202  -9.462   0.949  0.00  0.00     0.167 HD
ENDBRANCH  56  58
ENDBRANCH  55  56
ENDBRANCH  21  55
BRANCH  18  60
ATOM     60  C   UNK d   0      11.773  -7.322  -4.453  0.00  0.00     0.151 C 
BRANCH  60  61
ATOM     61  C   UNK d   0      10.391  -7.002  -4.064  0.00  0.00     0.143 C 
ATOM     62  O   UNK d   0       9.587  -7.746  -3.502  0.00  0.00    -0.650 OA
BRANCH  61  63
ATOM     63  O   UNK d   0       9.964  -5.690  -4.381  0.00  0.00    -0.776 OA
ATOM     64  H   UNK d   0      10.626  -4.943  -4.495  0.00  0.00     0.167 HD
ENDBRANCH  61  63
ENDBRANCH  60  61
ENDBRANCH  18  60
BRANCH  14  65
ATOM     65  C   UNK d   0      11.047  -7.920  -7.339  0.00  0.00     0.052 C 
BRANCH  65  66
ATOM     66  C   UNK d   0      12.091  -6.861  -7.391  0.00  0.00     0.115 C 
BRANCH  66  67
ATOM     67  C   UNK d   0      11.726  -5.518  -7.741  0.00  0.00     0.139 C 
ATOM     68  O   UNK d   0      10.859  -4.908  -7.014  0.00  0.00    -0.650 OA
BRANCH  67  69
ATOM     69  O   UNK d   0      12.202  -4.754  -8.807  0.00  0.00    -0.776 OA
ATOM     70  H   UNK d   0      12.879  -5.223  -9.426  0.00  0.00     0.167 HD
ENDBRANCH  67  69
ENDBRANCH  66  67
ENDBRANCH  65  66
ENDBRANCH  14  65
ENDBRANCH   6   7
ENDBRANCH   5   6
ENDBRANCH   2   5
TORSDOF 28
ENDMDL
MODEL 2
REMARK VINA RESULT:      -9.4      1.694      9.704
REMARK  28 active torsions:
REMARK  status: ('A' for Active; 'I' for Inactive)
REMARK    1  A    between atoms: C_2  and  O_3 
REMARK    2  A    between atoms: C_2  and  C_4 
REMARK    3  A    between atoms: C_4  and  C_5 
REMARK    4  A    between atoms: C_5  and  C_6 
REMARK    5  A    between atoms: C_7  and  C_8 
REMARK    6  A    between atoms: C_8  and  C_9 
REMARK    7  A    between atoms: C_9  and  O_11 
REMARK    8  A    between atoms: C_28  and  C_29 
REMARK    9  A    between atoms: C_29  and  C_30 
REMARK   10  A    between atoms: C_30  and  O_32 
REMARK   11  A    between atoms: C_33  and  C_34 
REMARK   12  A    between atoms: C_34  and  C_35 
REMARK   13  A    between atoms: C_35  and  C_36 
REMARK   14  A    between atoms: C_36  and  O_38 
REMARK   15  A    between atoms: C_39  and  C_40 
REMARK   16  A    between atoms: C_40  and  C_41 
REMARK   17  A    between atoms: C_41  and  C_42 
REMARK   18  A    between atoms: C_42  and  O_44 
REMARK   19  A    between atoms: C_45  and  C_46 
REMARK   20  A    between atoms: C_46  and  C_47 
REMARK   21  A    between atoms: C_47  and  O_49 
REMARK   22  A    between atoms: C_50  and  C_51 
REMARK   23  A    between atoms: C_51  and  C_52 
REMARK   24  A    between atoms: C_52  and  O_54 
REMARK   25  A    between atoms: C_55  and  C_56 
REMARK   26  A    between atoms: C_56  and  C_57 
REMARK   27  A    between atoms: C_57  and  C_58 
REMARK   28  A    between atoms: C_58  and  O_60 
ROOT
ATOM      1  O   UNK d   0      13.018  -6.566  -6.059  0.00  0.00    -0.650 OA
ATOM      2  C   UNK d   0      11.914  -6.242  -5.567  0.00  0.00     0.139 C 
ENDROOT
BRANCH   2   3
ATOM      3  O   UNK d   0      11.028  -5.513  -6.323  0.00  0.00    -0.776 OA
ATOM      4  H   UNK d   0      11.311  -5.096  -7.212  0.00  0.00     0.167 HD
ENDBRANCH   2   3
BRANCH   2   5
ATOM      5  C   UNK d   0      11.569  -6.645  -4.175  0.00  0.00     0.115 C 
BRANCH   5   6
ATOM      6  C   UNK d   0      12.731  -7.359  -3.539  0.00  0.00     0.052 C 
BRANCH   6   7
ATOM      7  C   UNK d   0      12.457  -8.826  -3.310  0.00  0.00    -0.020 A 
ATOM      8  C   UNK d   0      12.668  -9.517  -2.219  0.00  0.00    -0.011 A 
ATOM      9  C   UNK d   0      12.259 -10.888  -2.474  0.00  0.00     0.067 A 
ATOM     10  C   UNK d   0      12.207 -12.083  -1.739  0.00  0.00     0.062 C 
ATOM     11  N   UNK d   0      11.816 -10.944  -3.748  0.00  0.00    -0.248 NA
ATOM     12  C   UNK d   0      11.517 -13.253  -2.072  0.00  0.00     0.041 A 
ATOM     13  N   UNK d   0      11.388 -13.904  -3.244  0.00  0.00    -0.355 N 
ATOM     14  C   UNK d   0      10.754 -13.898  -1.082  0.00  0.00    -0.022 A 
ATOM     15  C   UNK d   0      10.557 -14.940  -3.025  0.00  0.00     0.042 A 
ATOM     16  H   UNK d   0      11.890 -13.647  -4.203  0.00  0.00     0.166 HD
ATOM     17  C   UNK d   0      10.087 -15.936  -3.904  0.00  0.00     0.062 C 
ATOM     18  C   UNK d   0      10.138 -14.969  -1.681  0.00  0.00    -0.013 A 
ATOM     19  C   UNK d   0       9.612 -15.803  -5.184  0.00  0.00     0.067 A 
ATOM     20  N   UNK d   0       9.787 -14.617  -5.773  0.00  0.00    -0.248 NA
ATOM     21  C   UNK d   0       8.911 -16.653  -6.132  0.00  0.00    -0.011 A 
ATOM     22  C   UNK d   0       9.250 -14.630  -7.037  0.00  0.00     0.066 A 
ATOM     23  C   UNK d   0       9.395 -13.467  -7.780  0.00  0.00     0.062 C 
ATOM     24  C   UNK d   0       8.698 -15.959  -7.213  0.00  0.00    -0.020 A 
ATOM     25  C   UNK d   0      10.104 -12.307  -7.432  0.00  0.00     0.041 A 
ATOM     26  N   UNK d   0      10.220 -11.652  -6.271  0.00  0.00    -0.355 N 
ATOM     27  C   UNK d   0      10.873 -11.663  -8.426  0.00  0.00    -0.022 A 
ATOM     28  C   UNK d   0      11.041 -10.613  -6.489  0.00  0.00     0.042 A 
ATOM     29  H   UNK d   0       9.706 -11.905  -5.311  0.00  0.00     0.166 HD
ATOM     30  C   UNK d   0      11.510  -9.610  -5.627  0.00  0.00     0.062 C 
ATOM     31  C   UNK d   0      11.470 -10.591  -7.838  0.00  0.00    -0.013 A 
ATOM     32  C   UNK d   0      11.908  -9.736  -4.306  0.00  0.00     0.066 A 
BRANCH   8  33
ATOM     33  C   UNK d   0      13.226  -9.017  -0.949  0.00  0.00     0.151 C 
BRANCH  33  34
ATOM     34  C   UNK d   0      14.561  -9.568  -0.656  0.00  0.00     0.143 C 
ATOM     35  O   UNK d   0      15.528  -9.316  -1.388  0.00  0.00    -0.650 OA
BRANCH  34  36
ATOM     36  O   UNK d   0      14.732 -10.374   0.446  0.00  0.00    -0.776 OA
ATOM     37  H   UNK d   0      14.172 -10.238   1.299  0.00  0.00     0.167 HD
ENDBRANCH  34  36
ENDBRANCH  33  34
ENDBRANCH   8  33
BRANCH  31  38
ATOM     38  C   UNK d   0      12.403  -9.610  -8.510  0.00  0.00     0.151 C 
BRANCH  38  39
ATOM     39  C   UNK d   0      11.700  -8.539  -9.184  0.00  0.00     0.143 C 
ATOM     40  O   UNK d   0      11.341  -8.623 -10.372  0.00  0.00    -0.650 OA
BRANCH  39  41
ATOM     41  O   UNK d   0      11.408  -7.366  -8.489  0.00  0.00    -0.776 OA
ATOM     42  H   UNK d   0      10.443  -7.252  -8.161  0.00  0.00     0.167 HD
ENDBRANCH  39  41
ENDBRANCH  38  39
ENDBRANCH  31  38
BRANCH  27  43
ATOM     43  C   UNK d   0      11.054 -12.021  -9.880  0.00  0.00     0.052 C 
BRANCH  43  44
ATOM     44  C   UNK d   0       9.915 -11.584 -10.743  0.00  0.00     0.115 C 
BRANCH  44  45
ATOM     45  C   UNK d   0       9.140 -12.807 -11.075  0.00  0.00     0.139 C 
ATOM     46  O   UNK d   0       9.747 -13.764 -11.616  0.00  0.00    -0.650 OA
BRANCH  45  47
ATOM     47  O   UNK d   0       7.794 -12.934 -10.809  0.00  0.00    -0.776 OA
ATOM     48  H   UNK d   0       7.307 -13.845 -10.805  0.00  0.00     0.167 HD
ENDBRANCH  45  47
ENDBRANCH  44  45
ENDBRANCH  43  44
ENDBRANCH  27  43
BRANCH  24  49
ATOM     49  C   UNK d   0       8.050 -16.445  -8.443  0.00  0.00     0.052 C 
BRANCH  49  50
ATOM     50  C   UNK d   0       6.613 -15.994  -8.492  0.00  0.00     0.115 C 
BRANCH  50  51
ATOM     51  C   UNK d   0       5.630 -16.831  -7.817  0.00  0.00     0.139 C 
ATOM     52  O   UNK d   0       5.256 -17.937  -8.274  0.00  0.00    -0.650 OA
BRANCH  51  53
ATOM     53  O   UNK d   0       5.071 -16.406  -6.622  0.00  0.00    -0.776 OA
ATOM     54  H   UNK d   0       4.454 -17.033  -6.136  0.00  0.00     0.167 HD
ENDBRANCH  51  53
ENDBRANCH  50  51
ENDBRANCH  49  50
ENDBRANCH  24  49
BRANCH  21  55
ATOM     55  C   UNK d   0       8.531 -18.071  -5.860  0.00  0.00     0.151 C 
BRANCH  55  56
ATOM     56  C   UNK d   0       9.646 -18.998  -6.109  0.00  0.00     0.143 C 
ATOM     57  O   UNK d   0      10.558 -19.193  -5.283  0.00  0.00    -0.650 OA
BRANCH  56  58
ATOM     58  O   UNK d   0       9.665 -19.677  -7.326  0.00  0.00    -0.776 OA
ATOM     59  H   UNK d   0       9.268 -20.634  -7.298  0.00  0.00     0.167 HD
ENDBRANCH  56  58
ENDBRANCH  55  56
ENDBRANCH  21  55
BRANCH  18  60
ATOM     60  C   UNK d   0       9.213 -15.935  -0.983  0.00  0.00     0.151 C 
BRANCH  60  61
ATOM     61  C   UNK d   0       9.751 -17.277  -1.254  0.00  0.00     0.143 C 
ATOM     62  O   UNK d   0      10.937 -17.603  -1.310  0.00  0.00    -0.650 OA
BRANCH  61  63
ATOM     63  O   UNK d   0       8.779 -18.283  -1.470  0.00  0.00    -0.776 OA
ATOM     64  H   UNK d   0       8.685 -19.058  -0.837  0.00  0.00     0.167 HD
ENDBRANCH  61  63
ENDBRANCH  60  61
ENDBRANCH  18  60
BRANCH  14  65
ATOM     65  C   UNK d   0      10.642 -13.639   0.394  0.00  0.00     0.052 C 
BRANCH  65  66
ATOM     66  C   UNK d   0      10.346 -12.217   0.714  0.00  0.00     0.115 C 
BRANCH  66  67
ATOM     67  C   UNK d   0      11.022 -11.579   1.809  0.00  0.00     0.139 C 
ATOM     68  O   UNK d   0      12.301 -11.465   1.758  0.00  0.00    -0.650 OA
BRANCH  67  69
ATOM     69  O   UNK d   0      10.456 -11.045   2.966  0.00  0.00    -0.776 OA
ATOM     70  H   UNK d   0      10.771 -11.464   3.853  0.00  0.00     0.167 HD
ENDBRANCH  67  69
ENDBRANCH  66  67
ENDBRANCH  65  66
ENDBRANCH  14  65
ENDBRANCH   6   7
ENDBRANCH   5   6
ENDBRANCH   2   5
TORSDOF 28
ENDMDL
MODEL 3
REMARK VINA RESULT:      -9.3      1.925      8.009
REMARK  28 active torsions:
REMARK  status: ('A' for Active; 'I' for Inactive)
REMARK    1  A    between atoms: C_2  and  O_3 
REMARK    2  A    between atoms: C_2  and  C_4 
REMARK    3  A    between atoms: C_4  and  C_5 
REMARK    4  A    between atoms: C_5  and  C_6 
REMARK    5  A    between atoms: C_7  and  C_8 
REMARK    6  A    between atoms: C_8  and  C_9 
REMARK    7  A    between atoms: C_9  and  O_11 
REMARK    8  A    between atoms: C_28  and  C_29 
REMARK    9  A    between atoms: C_29  and  C_30 
REMARK   10  A    between atoms: C_30  and  O_32 
REMARK   11  A    between atoms: C_33  and  C_34 
REMARK   12  A    between atoms: C_34  and  C_35 
REMARK   13  A    between atoms: C_35  and  C_36 
REMARK   14  A    between atoms: C_36  and  O_38 
REMARK   15  A    between atoms: C_39  and  C_40 
REMARK   16  A    between atoms: C_40  and  C_41 
REMARK   17  A    between atoms: C_41  and  C_42 
REMARK   18  A    between atoms: C_42  and  O_44 
REMARK   19  A    between atoms: C_45  and  C_46 
REMARK   20  A    between atoms: C_46  and  C_47 
REMARK   21  A    between atoms: C_47  and  O_49 
REMARK   22  A    between atoms: C_50  and  C_51 
REMARK   23  A    between atoms: C_51  and  C_52 
REMARK   24  A    between atoms: C_52  and  O_54 
REMARK   25  A    between atoms: C_55  and  C_56 
REMARK   26  A    between atoms: C_56  and  C_57 
REMARK   27  A    between atoms: C_57  and  C_58 
REMARK   28  A    between atoms: C_58  and  O_60 
ROOT
ATOM      1  O   UNK d   0      10.195 -19.633  -6.640  0.00  0.00    -0.650 OA
ATOM      2  C   UNK d   0      10.228 -19.075  -5.521  0.00  0.00     0.139 C 
ENDROOT
BRANCH   2   3
ATOM      3  O   UNK d   0      11.308 -19.283  -4.696  0.00  0.00    -0.776 OA
ATOM      4  H   UNK d   0      12.209 -18.839  -4.885  0.00  0.00     0.167 HD
ENDBRANCH   2   3
BRANCH   2   5
ATOM      5  C   UNK d   0       9.105 -18.195  -5.089  0.00  0.00     0.115 C 
BRANCH   5   6
ATOM      6  C   UNK d   0       9.306 -17.761  -3.663  0.00  0.00     0.052 C 
BRANCH   6   7
ATOM      7  C   UNK d   0       9.693 -16.306  -3.547  0.00  0.00    -0.020 A 
ATOM      8  C   UNK d   0      10.022 -15.652  -2.463  0.00  0.00    -0.011 A 
ATOM      9  C   UNK d   0      10.305 -14.277  -2.841  0.00  0.00     0.067 A 
ATOM     10  C   UNK d   0      10.718 -13.110  -2.181  0.00  0.00     0.062 C 
ATOM     11  N   UNK d   0      10.116 -14.182  -4.174  0.00  0.00    -0.248 NA
ATOM     12  C   UNK d   0      11.209 -11.936  -2.763  0.00  0.00     0.041 A 
ATOM     13  N   UNK d   0      10.804 -11.246  -3.846  0.00  0.00    -0.355 N 
ATOM     14  C   UNK d   0      12.358 -11.335  -2.216  0.00  0.00    -0.022 A 
ATOM     15  C   UNK d   0      11.670 -10.228  -4.005  0.00  0.00     0.042 A 
ATOM     16  H   UNK d   0       9.912 -11.464  -4.474  0.00  0.00     0.166 HD
ATOM     17  C   UNK d   0      11.710  -9.207  -4.976  0.00  0.00     0.062 C 
ATOM     18  C   UNK d   0      12.658 -10.251  -3.003  0.00  0.00    -0.013 A 
ATOM     19  C   UNK d   0      11.542  -9.300  -6.334  0.00  0.00     0.067 A 
ATOM     20  N   UNK d   0      11.087 -10.462  -6.808  0.00  0.00    -0.248 NA
ATOM     21  C   UNK d   0      11.753  -8.425  -7.475  0.00  0.00    -0.011 A 
ATOM     22  C   UNK d   0      10.985 -10.412  -8.177  0.00  0.00     0.066 A 
ATOM     23  C   UNK d   0      10.486 -11.545  -8.800  0.00  0.00     0.062 C 
ATOM     24  C   UNK d   0      11.429  -9.083  -8.551  0.00  0.00    -0.020 A 
ATOM     25  C   UNK d   0       9.985 -12.709  -8.197  0.00  0.00     0.041 A 
ATOM     26  N   UNK d   0      10.397 -13.403  -7.129  0.00  0.00    -0.355 N 
ATOM     27  C   UNK d   0       8.830 -13.310  -8.743  0.00  0.00    -0.022 A 
ATOM     28  C   UNK d   0       9.540 -14.425  -6.973  0.00  0.00     0.042 A 
ATOM     29  H   UNK d   0      11.300 -13.190  -6.506  0.00  0.00     0.166 HD
ATOM     30  C   UNK d   0       9.493 -15.453  -6.019  0.00  0.00     0.062 C 
ATOM     31  C   UNK d   0       8.541 -14.395  -7.975  0.00  0.00    -0.013 A 
ATOM     32  C   UNK d   0       9.747 -15.369  -4.659  0.00  0.00     0.066 A 
BRANCH   8  33
ATOM     33  C   UNK d   0      10.096 -16.190  -1.092  0.00  0.00     0.151 C 
BRANCH  33  34
ATOM     34  C   UNK d   0       9.018 -15.686  -0.223  0.00  0.00     0.143 C 
ATOM     35  O   UNK d   0       8.063 -16.410   0.092  0.00  0.00    -0.650 OA
BRANCH  34  36
ATOM     36  O   UNK d   0       9.075 -14.393   0.243  0.00  0.00    -0.776 OA
ATOM     37  H   UNK d   0       9.688 -14.134   1.028  0.00  0.00     0.167 HD
ENDBRANCH  34  36
ENDBRANCH  33  34
ENDBRANCH   8  33
BRANCH  31  38
ATOM     38  C   UNK d   0       7.379 -15.341  -8.170  0.00  0.00     0.151 C 
BRANCH  38  39
ATOM     39  C   UNK d   0       7.709 -16.468  -9.016  0.00  0.00     0.143 C 
ATOM     40  O   UNK d   0       8.743 -17.140  -8.858  0.00  0.00    -0.650 OA
BRANCH  39  41
ATOM     41  O   UNK d   0       6.844 -16.826 -10.050  0.00  0.00    -0.776 OA
ATOM     42  H   UNK d   0       6.334 -16.064 -10.510  0.00  0.00     0.167 HD
ENDBRANCH  39  41
ENDBRANCH  38  39
ENDBRANCH  31  38
BRANCH  27  43
ATOM     43  C   UNK d   0       8.012 -12.898  -9.942  0.00  0.00     0.052 C 
BRANCH  43  44
ATOM     44  C   UNK d   0       8.683 -13.194 -11.244  0.00  0.00     0.115 C 
BRANCH  44  45
ATOM     45  C   UNK d   0       7.724 -14.003 -12.042  0.00  0.00     0.139 C 
ATOM     46  O   UNK d   0       6.606 -14.265 -11.534  0.00  0.00    -0.650 OA
BRANCH  45  47
ATOM     47  O   UNK d   0       8.010 -14.467 -13.307  0.00  0.00    -0.776 OA
ATOM     48  H   UNK d   0       7.735 -13.961 -14.165  0.00  0.00     0.167 HD
ENDBRANCH  45  47
ENDBRANCH  44  45
ENDBRANCH  43  44
ENDBRANCH  27  43
BRANCH  24  49
ATOM     49  C   UNK d   0      11.454  -8.562  -9.928  0.00  0.00     0.052 C 
BRANCH  49  50
ATOM     50  C   UNK d   0      11.398  -9.695 -10.919  0.00  0.00     0.115 C 
BRANCH  50  51
ATOM     51  C   UNK d   0      12.648 -10.384 -11.212  0.00  0.00     0.139 C 
ATOM     52  O   UNK d   0      12.819 -11.604 -10.979  0.00  0.00    -0.650 OA
BRANCH  51  53
ATOM     53  O   UNK d   0      13.705  -9.681 -11.770  0.00  0.00    -0.776 OA
ATOM     54  H   UNK d   0      14.488 -10.202 -12.124  0.00  0.00     0.167 HD
ENDBRANCH  51  53
ENDBRANCH  50  51
ENDBRANCH  49  50
ENDBRANCH  24  49
BRANCH  21  55
ATOM     55  C   UNK d   0      12.252  -7.022  -7.371  0.00  0.00     0.151 C 
BRANCH  55  56
ATOM     56  C   UNK d   0      11.208  -6.099  -6.899  0.00  0.00     0.143 C 
ATOM     57  O   UNK d   0      10.779  -6.107  -5.729  0.00  0.00    -0.650 OA
BRANCH  56  58
ATOM     58  O   UNK d   0      10.688  -5.185  -7.814  0.00  0.00    -0.776 OA
ATOM     59  H   UNK d   0      10.681  -5.508  -8.798  0.00  0.00     0.167 HD
ENDBRANCH  56  58
ENDBRANCH  55  56
ENDBRANCH  21  55
BRANCH  18  60
ATOM     60  C   UNK d   0      13.825  -9.320  -2.782  0.00  0.00     0.151 C 
BRANCH  60  61
ATOM     61  C   UNK d   0      13.303  -8.201  -1.982  0.00  0.00     0.143 C 
ATOM     62  O   UNK d   0      12.153  -7.762  -1.982  0.00  0.00    -0.650 OA
BRANCH  61  63
ATOM     63  O   UNK d   0      14.246  -7.580  -1.128  0.00  0.00    -0.776 OA
ATOM     64  H   UNK d   0      15.217  -7.840  -1.151  0.00  0.00     0.167 HD
ENDBRANCH  61  63
ENDBRANCH  60  61
ENDBRANCH  18  60
BRANCH  14  65
ATOM     65  C   UNK d   0      13.126 -11.647  -0.964  0.00  0.00     0.052 C 
BRANCH  65  66
ATOM     66  C   UNK d   0      12.711 -10.814   0.196  0.00  0.00     0.115 C 
BRANCH  66  67
ATOM     67  C   UNK d   0      13.699 -10.342   1.124  0.00  0.00     0.139 C 
ATOM     68  O   UNK d   0      13.463 -10.455   2.383  0.00  0.00    -0.650 OA
BRANCH  67  69
ATOM     69  O   UNK d   0      14.930  -9.754   0.835  0.00  0.00    -0.776 OA
ATOM     70  H   UNK d   0      14.964  -9.187  -0.025  0.00  0.00     0.167 HD
ENDBRANCH  67  69
ENDBRANCH  66  67
ENDBRANCH  65  66
ENDBRANCH  14  65
ENDBRANCH   6   7
ENDBRANCH   5   6
ENDBRANCH   2   5
TORSDOF 28
ENDMDL
MODEL 4
REMARK VINA RESULT:      -9.2      3.125      9.002
REMARK  28 active torsions:
REMARK  status: ('A' for Active; 'I' for Inactive)
REMARK    1  A    between atoms: C_2  and  O_3 
REMARK    2  A    between atoms: C_2  and  C_4 
REMARK    3  A    between atoms: C_4  and  C_5 
REMARK    4  A    between atoms: C_5  and  C_6 
REMARK    5  A    between atoms: C_7  and  C_8 
REMARK    6  A    between atoms: C_8  and  C_9 
REMARK    7  A    between atoms: C_9  and  O_11 
REMARK    8  A    between atoms: C_28  and  C_29 
REMARK    9  A    between atoms: C_29  and  C_30 
REMARK   10  A    between atoms: C_30  and  O_32 
REMARK   11  A    between atoms: C_33  and  C_34 
REMARK   12  A    between atoms: C_34  and  C_35 
REMARK   13  A    between atoms: C_35  and  C_36 
REMARK   14  A    between atoms: C_36  and  O_38 
REMARK   15  A    between atoms: C_39  and  C_40 
REMARK   16  A    between atoms: C_40  and  C_41 
REMARK   17  A    between atoms: C_41  and  C_42 
REMARK   18  A    between atoms: C_42  and  O_44 
REMARK   19  A    between atoms: C_45  and  C_46 
REMARK   20  A    between atoms: C_46  and  C_47 
REMARK   21  A    between atoms: C_47  and  O_49 
REMARK   22  A    between atoms: C_50  and  C_51 
REMARK   23  A    between atoms: C_51  and  C_52 
REMARK   24  A    between atoms: C_52  and  O_54 
REMARK   25  A    between atoms: C_55  and  C_56 
REMARK   26  A    between atoms: C_56  and  C_57 
REMARK   27  A    between atoms: C_57  and  C_58 
REMARK   28  A    between atoms: C_58  and  O_60 
ROOT
ATOM      1  O   UNK d   0       3.883 -19.776  -1.693  0.00  0.00    -0.650 OA
ATOM      2  C   UNK d   0       4.487 -20.318  -2.645  0.00  0.00     0.139 C 
ENDROOT
BRANCH   2   3
ATOM      3  O   UNK d   0       4.986 -21.589  -2.490  0.00  0.00    -0.776 OA
ATOM      4  H   UNK d   0       4.464 -22.404  -2.820  0.00  0.00     0.167 HD
ENDBRANCH   2   3
BRANCH   2   5
ATOM      5  C   UNK d   0       4.662 -19.589  -3.933  0.00  0.00     0.115 C 
BRANCH   5   6
ATOM      6  C   UNK d   0       5.945 -20.011  -4.597  0.00  0.00     0.052 C 
BRANCH   6   7
ATOM      7  C   UNK d   0       6.280 -19.167  -5.803  0.00  0.00    -0.020 A 
ATOM      8  C   UNK d   0       5.844 -19.315  -7.028  0.00  0.00    -0.011 A 
ATOM      9  C   UNK d   0       6.445 -18.275  -7.844  0.00  0.00     0.067 A 
ATOM     10  C   UNK d   0       6.379 -17.877  -9.189  0.00  0.00     0.062 C 
ATOM     11  N   UNK d   0       7.239 -17.541  -7.037  0.00  0.00    -0.248 NA
ATOM     12  C   UNK d   0       6.820 -16.668  -9.737  0.00  0.00     0.041 A 
ATOM     13  N   UNK d   0       7.943 -15.956  -9.525  0.00  0.00    -0.355 N 
ATOM     14  C   UNK d   0       5.983 -15.982 -10.636  0.00  0.00    -0.022 A 
ATOM     15  C   UNK d   0       7.836 -14.832 -10.260  0.00  0.00     0.042 A 
ATOM     16  H   UNK d   0       8.803 -16.250  -8.884  0.00  0.00     0.166 HD
ATOM     17  C   UNK d   0       8.725 -13.749 -10.406  0.00  0.00     0.062 C 
ATOM     18  C   UNK d   0       6.620 -14.813 -10.970  0.00  0.00    -0.013 A 
ATOM     19  C   UNK d   0       9.426 -13.072  -9.441  0.00  0.00     0.067 A 
ATOM     20  N   UNK d   0       9.443 -13.608  -8.218  0.00  0.00    -0.248 NA
ATOM     21  C   UNK d   0      10.195 -11.840  -9.378  0.00  0.00    -0.011 A 
ATOM     22  C   UNK d   0      10.166 -12.816  -7.360  0.00  0.00     0.066 A 
ATOM     23  C   UNK d   0      10.298 -13.277  -6.059  0.00  0.00     0.062 C 
ATOM     24  C   UNK d   0      10.622 -11.694  -8.157  0.00  0.00    -0.020 A 
ATOM     25  C   UNK d   0       9.858 -14.501  -5.530  0.00  0.00     0.041 A 
ATOM     26  N   UNK d   0       8.735 -15.202  -5.730  0.00  0.00    -0.355 N 
ATOM     27  C   UNK d   0      10.701 -15.190  -4.632  0.00  0.00    -0.022 A 
ATOM     28  C   UNK d   0       8.835 -16.318  -4.991  0.00  0.00     0.042 A 
ATOM     29  H   UNK d   0       7.868 -14.899  -6.367  0.00  0.00     0.166 HD
ATOM     30  C   UNK d   0       7.955 -17.400  -4.829  0.00  0.00     0.062 C 
ATOM     31  C   UNK d   0      10.062 -16.341  -4.286  0.00  0.00    -0.013 A 
ATOM     32  C   UNK d   0       7.184 -18.026  -5.795  0.00  0.00     0.066 A 
BRANCH   8  33
ATOM     33  C   UNK d   0       4.912 -20.349  -7.516  0.00  0.00     0.151 C 
BRANCH  33  34
ATOM     34  C   UNK d   0       3.503 -19.922  -7.456  0.00  0.00     0.143 C 
ATOM     35  O   UNK d   0       2.692 -20.503  -6.721  0.00  0.00    -0.650 OA
BRANCH  34  36
ATOM     36  O   UNK d   0       3.085 -18.864  -8.230  0.00  0.00    -0.776 OA
ATOM     37  H   UNK d   0       3.640 -18.537  -9.032  0.00  0.00     0.167 HD
ENDBRANCH  34  36
ENDBRANCH  33  34
ENDBRANCH   8  33
BRANCH  31  38
ATOM     38  C   UNK d   0      10.588 -17.407  -3.353  0.00  0.00     0.151 C 
BRANCH  38  39
ATOM     39  C   UNK d   0      11.567 -18.269  -3.981  0.00  0.00     0.143 C 
ATOM     40  O   UNK d   0      11.293 -18.985  -4.960  0.00  0.00    -0.650 OA
BRANCH  39  41
ATOM     41  O   UNK d   0      12.868 -18.308  -3.480  0.00  0.00    -0.776 OA
ATOM     42  H   UNK d   0      13.605 -18.590  -4.134  0.00  0.00     0.167 HD
ENDBRANCH  39  41
ENDBRANCH  38  39
ENDBRANCH  31  38
BRANCH  27  43
ATOM     43  C   UNK d   0      12.058 -14.802  -4.101  0.00  0.00     0.052 C 
BRANCH  43  44
ATOM     44  C   UNK d   0      11.991 -13.907  -2.906  0.00  0.00     0.115 C 
BRANCH  44  45
ATOM     45  C   UNK d   0      12.194 -14.774  -1.715  0.00  0.00     0.139 C 
ATOM     46  O   UNK d   0      11.404 -14.643  -0.747  0.00  0.00    -0.650 OA
BRANCH  45  47
ATOM     47  O   UNK d   0      13.201 -15.711  -1.636  0.00  0.00    -0.776 OA
ATOM     48  H   UNK d   0      13.347 -16.439  -2.354  0.00  0.00     0.167 HD
ENDBRANCH  45  47
ENDBRANCH  44  45
ENDBRANCH  43  44
ENDBRANCH  27  43
BRANCH  24  49
ATOM     49  C   UNK d   0      11.474 -10.601  -7.660  0.00  0.00     0.052 C 
BRANCH  49  50
ATOM     50  C   UNK d   0      10.688  -9.317  -7.584  0.00  0.00     0.115 C 
BRANCH  50  51
ATOM     51  C   UNK d   0      11.177  -8.291  -6.672  0.00  0.00     0.139 C 
ATOM     52  O   UNK d   0      12.395  -8.136  -6.419  0.00  0.00    -0.650 OA
BRANCH  51  53
ATOM     53  O   UNK d   0      10.276  -7.442  -6.047  0.00  0.00    -0.776 OA
ATOM     54  H   UNK d   0       9.753  -7.797  -5.266  0.00  0.00     0.167 HD
ENDBRANCH  51  53
ENDBRANCH  50  51
ENDBRANCH  49  50
ENDBRANCH  24  49
BRANCH  21  55
ATOM     55  C   UNK d   0      10.427 -10.940 -10.547  0.00  0.00     0.151 C 
BRANCH  55  56
ATOM     56  C   UNK d   0      11.850 -10.862 -10.909  0.00  0.00     0.143 C 
ATOM     57  O   UNK d   0      12.446  -9.779 -11.071  0.00  0.00    -0.650 OA
BRANCH  56  58
ATOM     58  O   UNK d   0      12.546 -12.059 -11.072  0.00  0.00    -0.776 OA
ATOM     59  H   UNK d   0      12.998 -12.421 -10.213  0.00  0.00     0.167 HD
ENDBRANCH  56  58
ENDBRANCH  55  56
ENDBRANCH  21  55
BRANCH  18  60
ATOM     60  C   UNK d   0       6.072 -13.767 -11.908  0.00  0.00     0.151 C 
BRANCH  60  61
ATOM     61  C   UNK d   0       6.415 -14.221 -13.265  0.00  0.00     0.143 C 
ATOM     62  O   UNK d   0       7.536 -14.502 -13.692  0.00  0.00    -0.650 OA
BRANCH  61  63
ATOM     63  O   UNK d   0       5.322 -14.340 -14.155  0.00  0.00    -0.776 OA
ATOM     64  H   UNK d   0       4.382 -14.162 -13.849  0.00  0.00     0.167 HD
ENDBRANCH  61  63
ENDBRANCH  60  61
ENDBRANCH  18  60
BRANCH  14  65
ATOM     65  C   UNK d   0       4.685 -16.390 -11.273  0.00  0.00     0.052 C 
BRANCH  65  66
ATOM     66  C   UNK d   0       4.857 -17.403 -12.349  0.00  0.00     0.115 C 
BRANCH  66  67
ATOM     67  C   UNK d   0       4.450 -18.761 -12.120  0.00  0.00     0.139 C 
ATOM     68  O   UNK d   0       3.699 -19.014 -11.108  0.00  0.00    -0.650 OA
BRANCH  67  69
ATOM     69  O   UNK d   0       4.771 -19.887 -12.877  0.00  0.00    -0.776 OA
ATOM     70  H   UNK d   0       5.758 -20.178 -12.851  0.00  0.00     0.167 HD
ENDBRANCH  67  69
ENDBRANCH  66  67
ENDBRANCH  65  66
ENDBRANCH  14  65
ENDBRANCH   6   7
ENDBRANCH   5   6
ENDBRANCH   2   5
TORSDOF 28
ENDMDL
MODEL 5
REMARK VINA RESULT:      -9.2      1.955     10.286
REMARK  28 active torsions:
REMARK  status: ('A' for Active; 'I' for Inactive)
REMARK    1  A    between atoms: C_2  and  O_3 
REMARK    2  A    between atoms: C_2  and  C_4 
REMARK    3  A    between atoms: C_4  and  C_5 
REMARK    4  A    between atoms: C_5  and  C_6 
REMARK    5  A    between atoms: C_7  and  C_8 
REMARK    6  A    between atoms: C_8  and  C_9 
REMARK    7  A    between atoms: C_9  and  O_11 
REMARK    8  A    between atoms: C_28  and  C_29 
REMARK    9  A    between atoms: C_29  and  C_30 
REMARK   10  A    between atoms: C_30  and  O_32 
REMARK   11  A    between atoms: C_33  and  C_34 
REMARK   12  A    between atoms: C_34  and  C_35 
REMARK   13  A    between atoms: C_35  and  C_36 
REMARK   14  A    between atoms: C_36  and  O_38 
REMARK   15  A    between atoms: C_39  and  C_40 
REMARK   16  A    between atoms: C_40  and  C_41 
REMARK   17  A    between atoms: C_41  and  C_42 
REMARK   18  A    between atoms: C_42  and  O_44 
REMARK   19  A    between atoms: C_45  and  C_46 
REMARK   20  A    between atoms: C_46  and  C_47 
REMARK   21  A    between atoms: C_47  and  O_49 
REMARK   22  A    between atoms: C_50  and  C_51 
REMARK   23  A    between atoms: C_51  and  C_52 
REMARK   24  A    between atoms: C_52  and  O_54 
REMARK   25  A    between atoms: C_55  and  C_56 
REMARK   26  A    between atoms: C_56  and  C_57 
REMARK   27  A    between atoms: C_57  and  C_58 
REMARK   28  A    between atoms: C_58  and  O_60 
ROOT
ATOM      1  O   UNK d   0      14.175  -5.315  -3.866  0.00  0.00    -0.650 OA
ATOM      2  C   UNK d   0      14.490  -5.610  -2.691  0.00  0.00     0.139 C 
ENDROOT
BRANCH   2   3
ATOM      3  O   UNK d   0      15.058  -4.653  -1.885  0.00  0.00    -0.776 OA
ATOM      4  H   UNK d   0      14.485  -3.944  -1.424  0.00  0.00     0.167 HD
ENDBRANCH   2   3
BRANCH   2   5
ATOM      5  C   UNK d   0      14.249  -6.987  -2.176  0.00  0.00     0.115 C 
BRANCH   5   6
ATOM      6  C   UNK d   0      12.773  -7.272  -2.128  0.00  0.00     0.052 C 
BRANCH   6   7
ATOM      7  C   UNK d   0      12.466  -8.750  -2.105  0.00  0.00    -0.020 A 
ATOM      8  C   UNK d   0      12.590  -9.575  -1.097  0.00  0.00    -0.011 A 
ATOM      9  C   UNK d   0      12.186 -10.896  -1.550  0.00  0.00     0.067 A 
ATOM     10  C   UNK d   0      12.068 -12.171  -0.976  0.00  0.00     0.062 C 
ATOM     11  N   UNK d   0      11.836 -10.784  -2.849  0.00  0.00    -0.248 NA
ATOM     12  C   UNK d   0      11.391 -13.277  -1.501  0.00  0.00     0.041 A 
ATOM     13  N   UNK d   0      11.340 -13.774  -2.752  0.00  0.00    -0.355 N 
ATOM     14  C   UNK d   0      10.550 -14.025  -0.656  0.00  0.00    -0.022 A 
ATOM     15  C   UNK d   0      10.484 -14.813  -2.723  0.00  0.00     0.042 A 
ATOM     16  H   UNK d   0      11.914 -13.411  -3.632  0.00  0.00     0.166 HD
ATOM     17  C   UNK d   0      10.068 -15.683  -3.751  0.00  0.00     0.062 C 
ATOM     18  C   UNK d   0       9.968 -15.000  -1.426  0.00  0.00    -0.013 A 
ATOM     19  C   UNK d   0       9.689 -15.382  -5.034  0.00  0.00     0.067 A 
ATOM     20  N   UNK d   0       9.919 -14.136  -5.457  0.00  0.00    -0.248 NA
ATOM     21  C   UNK d   0       9.050 -16.093  -6.129  0.00  0.00    -0.011 A 
ATOM     22  C   UNK d   0       9.475 -13.981  -6.747  0.00  0.00     0.066 A 
ATOM     23  C   UNK d   0       9.687 -12.738  -7.326  0.00  0.00     0.062 C 
ATOM     24  C   UNK d   0       8.924 -15.267  -7.126  0.00  0.00    -0.020 A 
ATOM     25  C   UNK d   0      10.381 -11.645  -6.787  0.00  0.00     0.041 A 
ATOM     26  N   UNK d   0      10.420 -11.141  -5.547  0.00  0.00    -0.355 N 
ATOM     27  C   UNK d   0      11.228 -10.898  -7.635  0.00  0.00    -0.022 A 
ATOM     28  C   UNK d   0      11.267 -10.100  -5.575  0.00  0.00     0.042 A 
ATOM     29  H   UNK d   0       9.835 -11.501  -4.665  0.00  0.00     0.166 HD
ATOM     30  C   UNK d   0      11.682  -9.221  -4.562  0.00  0.00     0.062 C 
ATOM     31  C   UNK d   0      11.792  -9.919  -6.876  0.00  0.00    -0.013 A 
ATOM     32  C   UNK d   0      11.982  -9.518  -3.243  0.00  0.00     0.066 A 
BRANCH   8  33
ATOM     33  C   UNK d   0      13.060  -9.248   0.262  0.00  0.00     0.151 C 
BRANCH  33  34
ATOM     34  C   UNK d   0      14.447  -9.682   0.507  0.00  0.00     0.143 C 
ATOM     35  O   UNK d   0      15.220  -9.905  -0.436  0.00  0.00    -0.650 OA
BRANCH  34  36
ATOM     36  O   UNK d   0      14.887  -9.841   1.801  0.00  0.00    -0.776 OA
ATOM     37  H   UNK d   0      14.567 -10.630   2.380  0.00  0.00     0.167 HD
ENDBRANCH  34  36
ENDBRANCH  33  34
ENDBRANCH   8  33
BRANCH  31  38
ATOM     38  C   UNK d   0      12.782  -8.881  -7.352  0.00  0.00     0.151 C 
BRANCH  38  39
ATOM     39  C   UNK d   0      12.217  -7.549  -7.406  0.00  0.00     0.143 C 
ATOM     40  O   UNK d   0      12.416  -6.705  -6.515  0.00  0.00    -0.650 OA
BRANCH  39  41
ATOM     41  O   UNK d   0      11.419  -7.186  -8.490  0.00  0.00    -0.776 OA
ATOM     42  H   UNK d   0      10.410  -7.331  -8.390  0.00  0.00     0.167 HD
ENDBRANCH  39  41
ENDBRANCH  38  39
ENDBRANCH  31  38
BRANCH  27  43
ATOM     43  C   UNK d   0      11.510 -11.076  -9.106  0.00  0.00     0.052 C 
BRANCH  43  44
ATOM     44  C   UNK d   0      10.622 -10.254  -9.982  0.00  0.00     0.115 C 
BRANCH  44  45
ATOM     45  C   UNK d   0      11.515  -9.441 -10.848  0.00  0.00     0.139 C 
ATOM     46  O   UNK d   0      11.090  -8.335 -11.264  0.00  0.00    -0.650 OA
BRANCH  45  47
ATOM     47  O   UNK d   0      12.782  -9.848 -11.206  0.00  0.00    -0.776 OA
ATOM     48  H   UNK d   0      13.012 -10.198 -12.150  0.00  0.00     0.167 HD
ENDBRANCH  45  47
ENDBRANCH  44  45
ENDBRANCH  43  44
ENDBRANCH  27  43
BRANCH  24  49
ATOM     49  C   UNK d   0       8.362 -15.583  -8.451  0.00  0.00     0.052 C 
BRANCH  49  50
ATOM     50  C   UNK d   0       7.464 -14.467  -8.920  0.00  0.00     0.115 C 
BRANCH  50  51
ATOM     51  C   UNK d   0       7.887 -13.724 -10.099  0.00  0.00     0.139 C 
ATOM     52  O   UNK d   0       7.766 -12.480 -10.195  0.00  0.00    -0.650 OA
BRANCH  51  53
ATOM     53  O   UNK d   0       8.448 -14.401 -11.171  0.00  0.00    -0.776 OA
ATOM     54  H   UNK d   0       9.449 -14.483 -11.211  0.00  0.00     0.167 HD
ENDBRANCH  51  53
ENDBRANCH  50  51
ENDBRANCH  49  50
ENDBRANCH  24  49
BRANCH  21  55
ATOM     55  C   UNK d   0       8.636 -17.526  -6.064  0.00  0.00     0.151 C 
BRANCH  55  56
ATOM     56  C   UNK d   0       9.734 -18.435  -6.427  0.00  0.00     0.143 C 
ATOM     57  O   UNK d   0      10.539 -18.889  -5.590  0.00  0.00    -0.650 OA
BRANCH  56  58
ATOM     58  O   UNK d   0       9.865 -18.792  -7.768  0.00  0.00    -0.776 OA
ATOM     59  H   UNK d   0      10.212 -18.039  -8.388  0.00  0.00     0.167 HD
ENDBRANCH  56  58
ENDBRANCH  55  56
ENDBRANCH  21  55
BRANCH  18  60
ATOM     60  C   UNK d   0       8.984 -16.027  -0.922  0.00  0.00     0.151 C 
BRANCH  60  61
ATOM     61  C   UNK d   0       9.607 -17.337  -1.165  0.00  0.00     0.143 C 
ATOM     62  O   UNK d   0      10.811 -17.595  -1.178  0.00  0.00    -0.650 OA
BRANCH  61  63
ATOM     63  O   UNK d   0       8.703 -18.399  -1.406  0.00  0.00    -0.776 OA
ATOM     64  H   UNK d   0       7.712 -18.237  -1.447  0.00  0.00     0.167 HD
ENDBRANCH  61  63
ENDBRANCH  60  61
ENDBRANCH  18  60
BRANCH  14  65
ATOM     65  C   UNK d   0      10.334 -13.949   0.829  0.00  0.00     0.052 C 
BRANCH  65  66
ATOM     66  C   UNK d   0      10.044 -12.569   1.305  0.00  0.00     0.115 C 
BRANCH  66  67
ATOM     67  C   UNK d   0      10.748 -12.046   2.441  0.00  0.00     0.139 C 
ATOM     68  O   UNK d   0      11.512 -12.837   3.108  0.00  0.00    -0.650 OA
BRANCH  67  69
ATOM     69  O   UNK d   0      10.714 -10.744   2.941  0.00  0.00    -0.776 OA
ATOM     70  H   UNK d   0      10.742 -10.657   3.967  0.00  0.00     0.167 HD
ENDBRANCH  67  69
ENDBRANCH  66  67
ENDBRANCH  65  66
ENDBRANCH  14  65
ENDBRANCH   6   7
ENDBRANCH   5   6
ENDBRANCH   2   5
TORSDOF 28
ENDMDL
MODEL 6
REMARK VINA RESULT:      -9.1      1.781      7.784
REMARK  28 active torsions:
REMARK  status: ('A' for Active; 'I' for Inactive)
REMARK    1  A    between atoms: C_2  and  O_3 
REMARK    2  A    between atoms: C_2  and  C_4 
REMARK    3  A    between atoms: C_4  and  C_5 
REMARK    4  A    between atoms: C_5  and  C_6 
REMARK    5  A    between atoms: C_7  and  C_8 
REMARK    6  A    between atoms: C_8  and  C_9 
REMARK    7  A    between atoms: C_9  and  O_11 
REMARK    8  A    between atoms: C_28  and  C_29 
REMARK    9  A    between atoms: C_29  and  C_30 
REMARK   10  A    between atoms: C_30  and  O_32 
REMARK   11  A    between atoms: C_33  and  C_34 
REMARK   12  A    between atoms: C_34  and  C_35 
REMARK   13  A    between atoms: C_35  and  C_36 
REMARK   14  A    between atoms: C_36  and  O_38 
REMARK   15  A    between atoms: C_39  and  C_40 
REMARK   16  A    between atoms: C_40  and  C_41 
REMARK   17  A    between atoms: C_41  and  C_42 
REMARK   18  A    between atoms: C_42  and  O_44 
REMARK   19  A    between atoms: C_45  and  C_46 
REMARK   20  A    between atoms: C_46  and  C_47 
REMARK   21  A    between atoms: C_47  and  O_49 
REMARK   22  A    between atoms: C_50  and  C_51 
REMARK   23  A    between atoms: C_51  and  C_52 
REMARK   24  A    between atoms: C_52  and  O_54 
REMARK   25  A    between atoms: C_55  and  C_56 
REMARK   26  A    between atoms: C_56  and  C_57 
REMARK   27  A    between atoms: C_57  and  C_58 
REMARK   28  A    between atoms: C_58  and  O_60 
ROOT
ATOM      1  O   UNK d   0      11.735  -8.591 -12.051  0.00  0.00    -0.650 OA
ATOM      2  C   UNK d   0      11.527  -8.888 -10.854  0.00  0.00     0.139 C 
ENDROOT
BRANCH   2   3
ATOM      3  O   UNK d   0      11.040  -7.929  -9.997  0.00  0.00    -0.776 OA
ATOM      4  H   UNK d   0      11.009  -8.091  -8.989  0.00  0.00     0.167 HD
ENDBRANCH   2   3
BRANCH   2   5
ATOM      5  C   UNK d   0      11.806 -10.268 -10.366  0.00  0.00     0.115 C 
BRANCH   5   6
ATOM      6  C   UNK d   0      10.582 -11.130 -10.523  0.00  0.00     0.052 C 
BRANCH   6   7
ATOM      7  C   UNK d   0      10.229 -11.874  -9.258  0.00  0.00    -0.020 A 
ATOM      8  C   UNK d   0       9.579 -13.005  -9.152  0.00  0.00    -0.011 A 
ATOM      9  C   UNK d   0       9.471 -13.325  -7.739  0.00  0.00     0.067 A 
ATOM     10  C   UNK d   0       8.929 -14.372  -6.976  0.00  0.00     0.062 C 
ATOM     11  N   UNK d   0      10.078 -12.333  -7.055  0.00  0.00    -0.248 NA
ATOM     12  C   UNK d   0       9.167 -14.647  -5.625  0.00  0.00     0.041 A 
ATOM     13  N   UNK d   0       9.244 -13.834  -4.555  0.00  0.00    -0.355 N 
ATOM     14  C   UNK d   0       9.436 -15.973  -5.238  0.00  0.00    -0.022 A 
ATOM     15  C   UNK d   0       9.562 -14.608  -3.500  0.00  0.00     0.042 A 
ATOM     16  H   UNK d   0       9.058 -12.737  -4.542  0.00  0.00     0.166 HD
ATOM     17  C   UNK d   0       9.764 -14.270  -2.147  0.00  0.00     0.062 C 
ATOM     18  C   UNK d   0       9.691 -15.955  -3.889  0.00  0.00    -0.013 A 
ATOM     19  C   UNK d   0      10.474 -13.223  -1.616  0.00  0.00     0.067 A 
ATOM     20  N   UNK d   0      10.875 -12.272  -2.464  0.00  0.00    -0.248 NA
ATOM     21  C   UNK d   0      10.954 -12.849  -0.296  0.00  0.00    -0.011 A 
ATOM     22  C   UNK d   0      11.582 -11.304  -1.795  0.00  0.00     0.066 A 
ATOM     23  C   UNK d   0      12.028 -10.231  -2.553  0.00  0.00     0.062 C 
ATOM     24  C   UNK d   0      11.605 -11.727  -0.408  0.00  0.00    -0.020 A 
ATOM     25  C   UNK d   0      11.767  -9.967  -3.906  0.00  0.00     0.041 A 
ATOM     26  N   UNK d   0      11.705 -10.773  -4.973  0.00  0.00    -0.355 N 
ATOM     27  C   UNK d   0      11.493  -8.637  -4.293  0.00  0.00    -0.022 A 
ATOM     28  C   UNK d   0      11.396 -10.002  -6.028  0.00  0.00     0.042 A 
ATOM     29  H   UNK d   0      11.903 -11.873  -4.986  0.00  0.00     0.166 HD
ATOM     30  C   UNK d   0      11.202 -10.324  -7.380  0.00  0.00     0.062 C 
ATOM     31  C   UNK d   0      11.257  -8.650  -5.634  0.00  0.00    -0.013 A 
ATOM     32  C   UNK d   0      10.556 -11.429  -7.912  0.00  0.00     0.066 A 
BRANCH   8  33
ATOM     33  C   UNK d   0       9.038 -13.821 -10.255  0.00  0.00     0.151 C 
BRANCH  33  34
ATOM     34  C   UNK d   0       7.684 -13.404 -10.662  0.00  0.00     0.143 C 
ATOM     35  O   UNK d   0       7.223 -12.308 -10.312  0.00  0.00    -0.650 OA
BRANCH  34  36
ATOM     36  O   UNK d   0       6.924 -14.245 -11.441  0.00  0.00    -0.776 OA
ATOM     37  H   UNK d   0       5.935 -14.042 -11.639  0.00  0.00     0.167 HD
ENDBRANCH  34  36
ENDBRANCH  33  34
ENDBRANCH   8  33
BRANCH  31  38
ATOM     38  C   UNK d   0      10.907  -7.455  -6.489  0.00  0.00     0.151 C 
BRANCH  38  39
ATOM     39  C   UNK d   0      12.060  -6.649  -6.827  0.00  0.00     0.143 C 
ATOM     40  O   UNK d   0      11.957  -5.524  -7.347  0.00  0.00    -0.650 OA
BRANCH  39  41
ATOM     41  O   UNK d   0      13.340  -7.138  -6.565  0.00  0.00    -0.776 OA
ATOM     42  H   UNK d   0      13.526  -7.455  -5.608  0.00  0.00     0.167 HD
ENDBRANCH  39  41
ENDBRANCH  38  39
ENDBRANCH  31  38
BRANCH  27  43
ATOM     43  C   UNK d   0      11.451  -7.384  -3.455  0.00  0.00     0.052 C 
BRANCH  43  44
ATOM     44  C   UNK d   0      12.477  -7.365  -2.368  0.00  0.00     0.115 C 
BRANCH  44  45
ATOM     45  C   UNK d   0      13.599  -6.522  -2.857  0.00  0.00     0.139 C 
ATOM     46  O   UNK d   0      14.696  -6.585  -2.249  0.00  0.00    -0.650 OA
BRANCH  45  47
ATOM     47  O   UNK d   0      13.484  -5.685  -3.946  0.00  0.00    -0.776 OA
ATOM     48  H   UNK d   0      14.301  -5.263  -4.417  0.00  0.00     0.167 HD
ENDBRANCH  45  47
ENDBRANCH  44  45
ENDBRANCH  43  44
ENDBRANCH  27  43
BRANCH  24  49
ATOM     49  C   UNK d   0      12.226 -10.970   0.692  0.00  0.00     0.052 C 
BRANCH  49  50
ATOM     50  C   UNK d   0      13.587 -10.468   0.280  0.00  0.00     0.115 C 
BRANCH  50  51
ATOM     51  C   UNK d   0      14.179  -9.413   1.091  0.00  0.00     0.139 C 
ATOM     52  O   UNK d   0      14.134  -8.203   0.766  0.00  0.00    -0.650 OA
BRANCH  51  53
ATOM     53  O   UNK d   0      14.826  -9.738   2.274  0.00  0.00    -0.776 OA
ATOM     54  H   UNK d   0      14.293 -10.179   3.002  0.00  0.00     0.167 HD
ENDBRANCH  51  53
ENDBRANCH  50  51
ENDBRANCH  49  50
ENDBRANCH  24  49
BRANCH  21  55
ATOM     55  C   UNK d   0      10.708 -13.649   0.939  0.00  0.00     0.151 C 
BRANCH  55  56
ATOM     56  C   UNK d   0       9.931 -12.897   1.937  0.00  0.00     0.143 C 
ATOM     57  O   UNK d   0       9.085 -12.036   1.625  0.00  0.00    -0.650 OA
BRANCH  56  58
ATOM     58  O   UNK d   0      10.164 -13.174   3.284  0.00  0.00    -0.776 OA
ATOM     59  H   UNK d   0      11.119 -13.512   3.501  0.00  0.00     0.167 HD
ENDBRANCH  56  58
ENDBRANCH  55  56
ENDBRANCH  21  55
BRANCH  18  60
ATOM     60  C   UNK d   0      10.036 -17.166  -3.059  0.00  0.00     0.151 C 
BRANCH  60  61
ATOM     61  C   UNK d   0      11.497 -17.313  -3.145  0.00  0.00     0.143 C 
ATOM     62  O   UNK d   0      12.346 -16.635  -2.565  0.00  0.00    -0.650 OA
BRANCH  61  63
ATOM     63  O   UNK d   0      11.949 -18.352  -3.992  0.00  0.00    -0.776 OA
ATOM     64  H   UNK d   0      12.735 -18.218  -4.603  0.00  0.00     0.167 HD
ENDBRANCH  61  63
ENDBRANCH  60  61
ENDBRANCH  18  60
BRANCH  14  65
ATOM     65  C   UNK d   0       9.373 -17.255  -6.019  0.00  0.00     0.052 C 
BRANCH  65  66
ATOM     66  C   UNK d   0       8.028 -17.890  -5.986  0.00  0.00     0.115 C 
BRANCH  66  67
ATOM     67  C   UNK d   0       7.741 -18.994  -6.858  0.00  0.00     0.139 C 
ATOM     68  O   UNK d   0       6.665 -18.958  -7.560  0.00  0.00    -0.650 OA
BRANCH  67  69
ATOM     69  O   UNK d   0       8.502 -20.147  -7.054  0.00  0.00    -0.776 OA
ATOM     70  H   UNK d   0       9.439 -20.143  -6.626  0.00  0.00     0.167 HD
ENDBRANCH  67  69
ENDBRANCH  66  67
ENDBRANCH  65  66
ENDBRANCH  14  65
ENDBRANCH   6   7
ENDBRANCH   5   6
ENDBRANCH   2   5
TORSDOF 28
ENDMDL
MODEL 7
REMARK VINA RESULT:      -9.0      4.026     12.218
REMARK  28 active torsions:
REMARK  status: ('A' for Active; 'I' for Inactive)
REMARK    1  A    between atoms: C_2  and  O_3 
REMARK    2  A    between atoms: C_2  and  C_4 
REMARK    3  A    between atoms: C_4  and  C_5 
REMARK    4  A    between atoms: C_5  and  C_6 
REMARK    5  A    between atoms: C_7  and  C_8 
REMARK    6  A    between atoms: C_8  and  C_9 
REMARK    7  A    between atoms: C_9  and  O_11 
REMARK    8  A    between atoms: C_28  and  C_29 
REMARK    9  A    between atoms: C_29  and  C_30 
REMARK   10  A    between atoms: C_30  and  O_32 
REMARK   11  A    between atoms: C_33  and  C_34 
REMARK   12  A    between atoms: C_34  and  C_35 
REMARK   13  A    between atoms: C_35  and  C_36 
REMARK   14  A    between atoms: C_36  and  O_38 
REMARK   15  A    between atoms: C_39  and  C_40 
REMARK   16  A    between atoms: C_40  and  C_41 
REMARK   17  A    between atoms: C_41  and  C_42 
REMARK   18  A    between atoms: C_42  and  O_44 
REMARK   19  A    between atoms: C_45  and  C_46 
REMARK   20  A    between atoms: C_46  and  C_47 
REMARK   21  A    between atoms: C_47  and  O_49 
REMARK   22  A    between atoms: C_50  and  C_51 
REMARK   23  A    between atoms: C_51  and  C_52 
REMARK   24  A    between atoms: C_52  and  O_54 
REMARK   25  A    between atoms: C_55  and  C_56 
REMARK   26  A    between atoms: C_56  and  C_57 
REMARK   27  A    between atoms: C_57  and  C_58 
REMARK   28  A    between atoms: C_58  and  O_60 
ROOT
ATOM      1  O   UNK d   0      12.821 -16.323  -1.018  0.00  0.00    -0.650 OA
ATOM      2  C   UNK d   0      12.387 -16.543  -2.171  0.00  0.00     0.139 C 
ENDROOT
BRANCH   2   3
ATOM      3  O   UNK d   0      12.700 -17.727  -2.794  0.00  0.00    -0.776 OA
ATOM      4  H   UNK d   0      12.136 -18.080  -3.570  0.00  0.00     0.167 HD
ENDBRANCH   2   3
BRANCH   2   5
ATOM      5  C   UNK d   0      11.540 -15.527  -2.858  0.00  0.00     0.115 C 
BRANCH   5   6
ATOM      6  C   UNK d   0      10.085 -15.803  -2.595  0.00  0.00     0.052 C 
BRANCH   6   7
ATOM      7  C   UNK d   0       9.427 -16.572  -3.716  0.00  0.00    -0.020 A 
ATOM      8  C   UNK d   0       9.073 -17.832  -3.719  0.00  0.00    -0.011 A 
ATOM      9  C   UNK d   0       8.489 -18.127  -5.016  0.00  0.00     0.067 A 
ATOM     10  C   UNK d   0       7.912 -19.246  -5.637  0.00  0.00     0.062 C 
ATOM     11  N   UNK d   0       8.533 -16.990  -5.743  0.00  0.00    -0.248 NA
ATOM     12  C   UNK d   0       7.145 -19.265  -6.807  0.00  0.00     0.041 A 
ATOM     13  N   UNK d   0       7.305 -18.627  -7.982  0.00  0.00    -0.355 N 
ATOM     14  C   UNK d   0       5.954 -20.014  -6.827  0.00  0.00    -0.022 A 
ATOM     15  C   UNK d   0       6.242 -18.946  -8.744  0.00  0.00     0.042 A 
ATOM     16  H   UNK d   0       8.161 -17.981  -8.273  0.00  0.00     0.166 HD
ATOM     17  C   UNK d   0       5.910 -18.555 -10.057  0.00  0.00     0.062 C 
ATOM     18  C   UNK d   0       5.373 -19.813  -8.054  0.00  0.00    -0.013 A 
ATOM     19  C   UNK d   0       5.969 -17.309 -10.627  0.00  0.00     0.067 A 
ATOM     20  N   UNK d   0       6.603 -16.358  -9.937  0.00  0.00    -0.248 NA
ATOM     21  C   UNK d   0       5.485 -16.698 -11.854  0.00  0.00    -0.011 A 
ATOM     22  C   UNK d   0       6.567 -15.168 -10.622  0.00  0.00     0.066 A 
ATOM     23  C   UNK d   0       7.224 -14.098 -10.034  0.00  0.00     0.062 C 
ATOM     24  C   UNK d   0       5.835 -15.444 -11.843  0.00  0.00    -0.020 A 
ATOM     25  C   UNK d   0       8.000 -14.102  -8.864  0.00  0.00     0.041 A 
ATOM     26  N   UNK d   0       7.834 -14.725  -7.691  0.00  0.00    -0.355 N 
ATOM     27  C   UNK d   0       9.198 -13.354  -8.846  0.00  0.00    -0.022 A 
ATOM     28  C   UNK d   0       8.888 -14.402  -6.925  0.00  0.00     0.042 A 
ATOM     29  H   UNK d   0       6.967 -15.366  -7.396  0.00  0.00     0.166 HD
ATOM     30  C   UNK d   0       9.226 -14.775  -5.615  0.00  0.00     0.062 C 
ATOM     31  C   UNK d   0       9.766 -13.539  -7.623  0.00  0.00    -0.013 A 
ATOM     32  C   UNK d   0       9.085 -16.018  -5.017  0.00  0.00     0.066 A 
BRANCH   8  33
ATOM     33  C   UNK d   0       9.234 -18.799  -2.617  0.00  0.00     0.151 C 
BRANCH  33  34
ATOM     34  C   UNK d   0       8.030 -18.907  -1.773  0.00  0.00     0.143 C 
ATOM     35  O   UNK d   0       7.038 -19.542  -2.158  0.00  0.00    -0.650 OA
BRANCH  34  36
ATOM     36  O   UNK d   0       8.011 -18.292  -0.542  0.00  0.00    -0.776 OA
ATOM     37  H   UNK d   0       7.149 -18.246   0.018  0.00  0.00     0.167 HD
ENDBRANCH  34  36
ENDBRANCH  33  34
ENDBRANCH   8  33
BRANCH  31  38
ATOM     38  C   UNK d   0      11.071 -12.943  -7.148  0.00  0.00     0.151 C 
BRANCH  38  39
ATOM     39  C   UNK d   0      10.885 -11.761  -6.333  0.00  0.00     0.143 C 
ATOM     40  O   UNK d   0      11.243 -10.631  -6.709  0.00  0.00    -0.650 OA
BRANCH  39  41
ATOM     41  O   UNK d   0      10.284 -11.879  -5.080  0.00  0.00    -0.776 OA
ATOM     42  H   UNK d   0       9.619 -12.649  -4.958  0.00  0.00     0.167 HD
ENDBRANCH  39  41
ENDBRANCH  38  39
ENDBRANCH  31  38
BRANCH  27  43
ATOM     43  C   UNK d   0       9.804 -12.490  -9.923  0.00  0.00     0.052 C 
BRANCH  43  44
ATOM     44  C   UNK d   0       9.598 -11.028  -9.693  0.00  0.00     0.115 C 
BRANCH  44  45
ATOM     45  C   UNK d   0      10.875 -10.358 -10.052  0.00  0.00     0.139 C 
ATOM     46  O   UNK d   0      11.880 -11.078 -10.271  0.00  0.00    -0.650 OA
BRANCH  45  47
ATOM     47  O   UNK d   0      10.996  -8.989 -10.159  0.00  0.00    -0.776 OA
ATOM     48  H   UNK d   0      11.699  -8.446  -9.632  0.00  0.00     0.167 HD
ENDBRANCH  45  47
ENDBRANCH  44  45
ENDBRANCH  43  44
ENDBRANCH  27  43
BRANCH  24  49
ATOM     49  C   UNK d   0       5.581 -14.462 -12.911  0.00  0.00     0.052 C 
BRANCH  49  50
ATOM     50  C   UNK d   0       6.640 -14.563 -13.979  0.00  0.00     0.115 C 
BRANCH  50  51
ATOM     51  C   UNK d   0       6.186 -14.634 -15.361  0.00  0.00     0.139 C 
ATOM     52  O   UNK d   0       6.910 -14.301 -16.329  0.00  0.00    -0.650 OA
BRANCH  51  53
ATOM     53  O   UNK d   0       4.904 -15.083 -15.640  0.00  0.00    -0.776 OA
ATOM     54  H   UNK d   0       4.574 -15.905 -15.166  0.00  0.00     0.167 HD
ENDBRANCH  51  53
ENDBRANCH  50  51
ENDBRANCH  49  50
ENDBRANCH  24  49
BRANCH  21  55
ATOM     55  C   UNK d   0       4.727 -17.431 -12.910  0.00  0.00     0.151 C 
BRANCH  55  56
ATOM     56  C   UNK d   0       5.586 -18.361 -13.660  0.00  0.00     0.143 C 
ATOM     57  O   UNK d   0       6.365 -17.985 -14.558  0.00  0.00    -0.650 OA
BRANCH  56  58
ATOM     58  O   UNK d   0       5.513 -19.715 -13.339  0.00  0.00    -0.776 OA
ATOM     59  H   UNK d   0       4.574 -20.044 -13.049  0.00  0.00     0.167 HD
ENDBRANCH  56  58
ENDBRANCH  55  56
ENDBRANCH  21  55
BRANCH  18  60
ATOM     60  C   UNK d   0       4.069 -20.424  -8.504  0.00  0.00     0.151 C 
BRANCH  60  61
ATOM     61  C   UNK d   0       3.069 -19.349  -8.419  0.00  0.00     0.143 C 
ATOM     62  O   UNK d   0       3.238 -18.210  -7.982  0.00  0.00    -0.650 OA
BRANCH  61  63
ATOM     63  O   UNK d   0       1.780 -19.686  -8.900  0.00  0.00    -0.776 OA
ATOM     64  H   UNK d   0       1.648 -20.023  -9.837  0.00  0.00     0.167 HD
ENDBRANCH  61  63
ENDBRANCH  60  61
ENDBRANCH  18  60
BRANCH  14  65
ATOM     65  C   UNK d   0       5.381 -20.972  -5.823  0.00  0.00     0.052 C 
BRANCH  65  66
ATOM     66  C   UNK d   0       4.743 -20.289  -4.666  0.00  0.00     0.115 C 
BRANCH  66  67
ATOM     67  C   UNK d   0       3.465 -19.654  -4.830  0.00  0.00     0.139 C 
ATOM     68  O   UNK d   0       2.405 -20.378  -4.750  0.00  0.00    -0.650 OA
BRANCH  67  69
ATOM     69  O   UNK d   0       3.208 -18.306  -5.075  0.00  0.00    -0.776 OA
ATOM     70  H   UNK d   0       3.979 -17.773  -5.501  0.00  0.00     0.167 HD
ENDBRANCH  67  69
ENDBRANCH  66  67
ENDBRANCH  65  66
ENDBRANCH  14  65
ENDBRANCH   6   7
ENDBRANCH   5   6
ENDBRANCH   2   5
TORSDOF 28
ENDMDL
MODEL 8
REMARK VINA RESULT:      -9.0      2.335      8.327
REMARK  28 active torsions:
REMARK  status: ('A' for Active; 'I' for Inactive)
REMARK    1  A    between atoms: C_2  and  O_3 
REMARK    2  A    between atoms: C_2  and  C_4 
REMARK    3  A    between atoms: C_4  and  C_5 
REMARK    4  A    between atoms: C_5  and  C_6 
REMARK    5  A    between atoms: C_7  and  C_8 
REMARK    6  A    between atoms: C_8  and  C_9 
REMARK    7  A    between atoms: C_9  and  O_11 
REMARK    8  A    between atoms: C_28  and  C_29 
REMARK    9  A    between atoms: C_29  and  C_30 
REMARK   10  A    between atoms: C_30  and  O_32 
REMARK   11  A    between atoms: C_33  and  C_34 
REMARK   12  A    between atoms: C_34  and  C_35 
REMARK   13  A    between atoms: C_35  and  C_36 
REMARK   14  A    between atoms: C_36  and  O_38 
REMARK   15  A    between atoms: C_39  and  C_40 
REMARK   16  A    between atoms: C_40  and  C_41 
REMARK   17  A    between atoms: C_41  and  C_42 
REMARK   18  A    between atoms: C_42  and  O_44 
REMARK   19  A    between atoms: C_45  and  C_46 
REMARK   20  A    between atoms: C_46  and  C_47 
REMARK   21  A    between atoms: C_47  and  O_49 
REMARK   22  A    between atoms: C_50  and  C_51 
REMARK   23  A    between atoms: C_51  and  C_52 
REMARK   24  A    between atoms: C_52  and  O_54 
REMARK   25  A    between atoms: C_55  and  C_56 
REMARK   26  A    between atoms: C_56  and  C_57 
REMARK   27  A    between atoms: C_57  and  C_58 
REMARK   28  A    between atoms: C_58  and  O_60 
ROOT
ATOM      1  O   UNK d   0      14.326  -8.041  -0.626  0.00  0.00    -0.650 OA
ATOM      2  C   UNK d   0      13.572  -7.770  -1.587  0.00  0.00     0.139 C 
ENDROOT
BRANCH   2   3
ATOM      3  O   UNK d   0      13.524  -6.482  -2.063  0.00  0.00    -0.776 OA
ATOM      4  H   UNK d   0      12.631  -6.016  -2.237  0.00  0.00     0.167 HD
ENDBRANCH   2   3
BRANCH   2   5
ATOM      5  C   UNK d   0      12.735  -8.837  -2.206  0.00  0.00     0.115 C 
BRANCH   5   6
ATOM      6  C   UNK d   0      13.485  -9.497  -3.330  0.00  0.00     0.052 C 
BRANCH   6   7
ATOM      7  C   UNK d   0      12.568 -10.073  -4.382  0.00  0.00    -0.020 A 
ATOM      8  C   UNK d   0      12.153  -9.498  -5.482  0.00  0.00    -0.011 A 
ATOM      9  C   UNK d   0      11.281 -10.434  -6.172  0.00  0.00     0.067 A 
ATOM     10  C   UNK d   0      10.554 -10.443  -7.372  0.00  0.00     0.062 C 
ATOM     11  N   UNK d   0      11.217 -11.551  -5.418  0.00  0.00    -0.248 NA
ATOM     12  C   UNK d   0       9.987 -11.552  -8.011  0.00  0.00     0.041 A 
ATOM     13  N   UNK d   0       9.299 -12.601  -7.521  0.00  0.00    -0.355 N 
ATOM     14  C   UNK d   0      10.166 -11.703  -9.398  0.00  0.00    -0.022 A 
ATOM     15  C   UNK d   0       9.044 -13.418  -8.561  0.00  0.00     0.042 A 
ATOM     16  H   UNK d   0       8.984 -12.752  -6.465  0.00  0.00     0.166 HD
ATOM     17  C   UNK d   0       8.357 -14.648  -8.608  0.00  0.00     0.062 C 
ATOM     18  C   UNK d   0       9.571 -12.888  -9.754  0.00  0.00    -0.013 A 
ATOM     19  C   UNK d   0       8.456 -15.724  -7.764  0.00  0.00     0.067 A 
ATOM     20  N   UNK d   0       9.136 -15.541  -6.629  0.00  0.00    -0.248 NA
ATOM     21  C   UNK d   0       8.005 -17.105  -7.775  0.00  0.00    -0.011 A 
ATOM     22  C   UNK d   0       9.163 -16.703  -5.897  0.00  0.00     0.066 A 
ATOM     23  C   UNK d   0       9.807 -16.644  -4.670  0.00  0.00     0.062 C 
ATOM     24  C   UNK d   0       8.425 -17.674  -6.682  0.00  0.00    -0.020 A 
ATOM     25  C   UNK d   0      10.358 -15.518  -4.041  0.00  0.00     0.041 A 
ATOM     26  N   UNK d   0      11.055 -14.483  -4.525  0.00  0.00    -0.355 N 
ATOM     27  C   UNK d   0      10.175 -15.364  -2.650  0.00  0.00    -0.022 A 
ATOM     28  C   UNK d   0      11.319 -13.671  -3.489  0.00  0.00     0.042 A 
ATOM     29  H   UNK d   0      11.380 -14.338  -5.585  0.00  0.00     0.166 HD
ATOM     30  C   UNK d   0      12.008 -12.450  -3.426  0.00  0.00     0.062 C 
ATOM     31  C   UNK d   0      10.779 -14.198  -2.292  0.00  0.00    -0.013 A 
ATOM     32  C   UNK d   0      11.969 -11.398  -4.328  0.00  0.00     0.066 A 
BRANCH   8  33
ATOM     33  C   UNK d   0      12.492  -8.142  -5.953  0.00  0.00     0.151 C 
BRANCH  33  34
ATOM     34  C   UNK d   0      11.493  -7.134  -5.556  0.00  0.00     0.143 C 
ATOM     35  O   UNK d   0      11.725  -6.335  -4.638  0.00  0.00    -0.650 OA
BRANCH  34  36
ATOM     36  O   UNK d   0      10.286  -7.082  -6.215  0.00  0.00    -0.776 OA
ATOM     37  H   UNK d   0      10.134  -7.598  -7.093  0.00  0.00     0.167 HD
ENDBRANCH  34  36
ENDBRANCH  33  34
ENDBRANCH   8  33
BRANCH  31  38
ATOM     38  C   UNK d   0      10.831 -13.611  -0.901  0.00  0.00     0.151 C 
BRANCH  38  39
ATOM     39  C   UNK d   0       9.734 -12.705  -0.633  0.00  0.00     0.143 C 
ATOM     40  O   UNK d   0       9.840 -11.745   0.151  0.00  0.00    -0.650 OA
BRANCH  39  41
ATOM     41  O   UNK d   0       8.510 -12.902  -1.270  0.00  0.00    -0.776 OA
ATOM     42  H   UNK d   0       8.428 -12.555  -2.231  0.00  0.00     0.167 HD
ENDBRANCH  39  41
ENDBRANCH  38  39
ENDBRANCH  31  38
BRANCH  27  43
ATOM     43  C   UNK d   0       9.465 -16.267  -1.671  0.00  0.00     0.052 C 
BRANCH  43  44
ATOM     44  C   UNK d   0       9.985 -17.668  -1.675  0.00  0.00     0.115 C 
BRANCH  44  45
ATOM     45  C   UNK d   0       8.798 -18.561  -1.645  0.00  0.00     0.139 C 
ATOM     46  O   UNK d   0       8.711 -19.460  -2.518  0.00  0.00    -0.650 OA
BRANCH  45  47
ATOM     47  O   UNK d   0       7.799 -18.446  -0.702  0.00  0.00    -0.776 OA
ATOM     48  H   UNK d   0       7.933 -18.701   0.290  0.00  0.00     0.167 HD
ENDBRANCH  45  47
ENDBRANCH  44  45
ENDBRANCH  43  44
ENDBRANCH  27  43
BRANCH  24  49
ATOM     49  C   UNK d   0       8.161 -19.063  -6.269  0.00  0.00     0.052 C 
BRANCH  49  50
ATOM     50  C   UNK d   0       6.953 -19.121  -5.368  0.00  0.00     0.115 C 
BRANCH  50  51
ATOM     51  C   UNK d   0       5.846 -19.965  -5.794  0.00  0.00     0.139 C 
ATOM     52  O   UNK d   0       5.563 -20.152  -7.001  0.00  0.00    -0.650 OA
BRANCH  51  53
ATOM     53  O   UNK d   0       5.057 -20.595  -4.843  0.00  0.00    -0.776 OA
ATOM     54  H   UNK d   0       4.108 -20.820  -5.086  0.00  0.00     0.167 HD
ENDBRANCH  51  53
ENDBRANCH  50  51
ENDBRANCH  49  50
ENDBRANCH  24  49
BRANCH  21  55
ATOM     55  C   UNK d   0       7.198 -17.711  -8.875  0.00  0.00     0.151 C 
BRANCH  55  56
ATOM     56  C   UNK d   0       5.850 -17.128  -8.956  0.00  0.00     0.143 C 
ATOM     57  O   UNK d   0       5.397 -16.619 -10.000  0.00  0.00    -0.650 OA
BRANCH  56  58
ATOM     58  O   UNK d   0       5.062 -17.154  -7.807  0.00  0.00    -0.776 OA
ATOM     59  H   UNK d   0       5.393 -16.546  -7.036  0.00  0.00     0.167 HD
ENDBRANCH  56  58
ENDBRANCH  55  56
ENDBRANCH  21  55
BRANCH  18  60
ATOM     60  C   UNK d   0       9.533 -13.449 -11.154  0.00  0.00     0.151 C 
BRANCH  60  61
ATOM     61  C   UNK d   0       8.112 -13.487 -11.535  0.00  0.00     0.143 C 
ATOM     62  O   UNK d   0       7.213 -12.758 -11.117  0.00  0.00    -0.650 OA
BRANCH  61  63
ATOM     63  O   UNK d   0       7.770 -14.478 -12.486  0.00  0.00    -0.776 OA
ATOM     64  H   UNK d   0       6.863 -14.911 -12.480  0.00  0.00     0.167 HD
ENDBRANCH  61  63
ENDBRANCH  60  61
ENDBRANCH  18  60
BRANCH  14  65
ATOM     65  C   UNK d   0      10.763 -10.775 -10.417  0.00  0.00     0.052 C 
BRANCH  65  66
ATOM     66  C   UNK d   0      11.668  -9.758  -9.818  0.00  0.00     0.115 C 
BRANCH  66  67
ATOM     67  C   UNK d   0      11.430  -8.363 -10.060  0.00  0.00     0.139 C 
ATOM     68  O   UNK d   0      11.257  -7.971 -11.272  0.00  0.00    -0.650 OA
BRANCH  67  69
ATOM     69  O   UNK d   0      11.359  -7.334  -9.121  0.00  0.00    -0.776 OA
ATOM     70  H   UNK d   0      11.701  -6.415  -9.436  0.00  0.00     0.167 HD
ENDBRANCH  67  69
ENDBRANCH  66  67
ENDBRANCH  65  66
ENDBRANCH  14  65
ENDBRANCH   6   7
ENDBRANCH   5   6
ENDBRANCH   2   5
TORSDOF 28
ENDMDL
MODEL 9
REMARK VINA RESULT:      -8.9      2.056      8.195
REMARK  28 active torsions:
REMARK  status: ('A' for Active; 'I' for Inactive)
REMARK    1  A    between atoms: C_2  and  O_3 
REMARK    2  A    between atoms: C_2  and  C_4 
REMARK    3  A    between atoms: C_4  and  C_5 
REMARK    4  A    between atoms: C_5  and  C_6 
REMARK    5  A    between atoms: C_7  and  C_8 
REMARK    6  A    between atoms: C_8  and  C_9 
REMARK    7  A    between atoms: C_9  and  O_11 
REMARK    8  A    between atoms: C_28  and  C_29 
REMARK    9  A    between atoms: C_29  and  C_30 
REMARK   10  A    between atoms: C_30  and  O_32 
REMARK   11  A    between atoms: C_33  and  C_34 
REMARK   12  A    between atoms: C_34  and  C_35 
REMARK   13  A    between atoms: C_35  and  C_36 
REMARK   14  A    between atoms: C_36  and  O_38 
REMARK   15  A    between atoms: C_39  and  C_40 
REMARK   16  A    between atoms: C_40  and  C_41 
REMARK   17  A    between atoms: C_41  and  C_42 
REMARK   18  A    between atoms: C_42  and  O_44 
REMARK   19  A    between atoms: C_45  and  C_46 
REMARK   20  A    between atoms: C_46  and  C_47 
REMARK   21  A    between atoms: C_47  and  O_49 
REMARK   22  A    between atoms: C_50  and  C_51 
REMARK   23  A    between atoms: C_51  and  C_52 
REMARK   24  A    between atoms: C_52  and  O_54 
REMARK   25  A    between atoms: C_55  and  C_56 
REMARK   26  A    between atoms: C_56  and  C_57 
REMARK   27  A    between atoms: C_57  and  C_58 
REMARK   28  A    between atoms: C_58  and  O_60 
ROOT
ATOM      1  O   UNK d   0      14.363  -8.564   1.477  0.00  0.00    -0.650 OA
ATOM      2  C   UNK d   0      13.875  -9.715   1.436  0.00  0.00     0.139 C 
ENDROOT
BRANCH   2   3
ATOM      3  O   UNK d   0      14.067 -10.566   2.498  0.00  0.00    -0.776 OA
ATOM      4  H   UNK d   0      13.775 -11.544   2.449  0.00  0.00     0.167 HD
ENDBRANCH   2   3
BRANCH   2   5
ATOM      5  C   UNK d   0      13.095 -10.155   0.245  0.00  0.00     0.115 C 
BRANCH   5   6
ATOM      6  C   UNK d   0      13.790  -9.722  -1.018  0.00  0.00     0.052 C 
BRANCH   6   7
ATOM      7  C   UNK d   0      13.014 -10.085  -2.261  0.00  0.00    -0.020 A 
ATOM      8  C   UNK d   0      12.814  -9.345  -3.321  0.00  0.00    -0.011 A 
ATOM      9  C   UNK d   0      12.004 -10.113  -4.253  0.00  0.00     0.067 A 
ATOM     10  C   UNK d   0      11.475  -9.912  -5.538  0.00  0.00     0.062 C 
ATOM     11  N   UNK d   0      11.753 -11.307  -3.677  0.00  0.00    -0.248 NA
ATOM     12  C   UNK d   0      10.948 -10.882  -6.398  0.00  0.00     0.041 A 
ATOM     13  N   UNK d   0      10.128 -11.924  -6.162  0.00  0.00    -0.355 N 
ATOM     14  C   UNK d   0      11.331 -10.873  -7.751  0.00  0.00    -0.022 A 
ATOM     15  C   UNK d   0       9.988 -12.580  -7.329  0.00  0.00     0.042 A 
ATOM     16  H   UNK d   0       9.642 -12.179  -5.194  0.00  0.00     0.166 HD
ATOM     17  C   UNK d   0       9.243 -13.734  -7.644  0.00  0.00     0.062 C 
ATOM     18  C   UNK d   0      10.728 -11.951  -8.349  0.00  0.00    -0.013 A 
ATOM     19  C   UNK d   0       9.141 -14.912  -6.949  0.00  0.00     0.067 A 
ATOM     20  N   UNK d   0       9.644 -14.929  -5.712  0.00  0.00    -0.248 NA
ATOM     21  C   UNK d   0       8.612 -16.239  -7.214  0.00  0.00    -0.011 A 
ATOM     22  C   UNK d   0       9.484 -16.172  -5.150  0.00  0.00     0.066 A 
ATOM     23  C   UNK d   0       9.930 -16.320  -3.845  0.00  0.00     0.062 C 
ATOM     24  C   UNK d   0       8.820 -16.973  -6.159  0.00  0.00    -0.020 A 
ATOM     25  C   UNK d   0      10.445 -15.330  -2.994  0.00  0.00     0.041 A 
ATOM     26  N   UNK d   0      11.272 -14.303  -3.225  0.00  0.00    -0.355 N 
ATOM     27  C   UNK d   0      10.056 -15.337  -1.637  0.00  0.00    -0.022 A 
ATOM     28  C   UNK d   0      11.420 -13.652  -2.060  0.00  0.00     0.042 A 
ATOM     29  H   UNK d   0      11.768 -14.055  -4.195  0.00  0.00     0.166 HD
ATOM     30  C   UNK d   0      12.165 -12.509  -1.730  0.00  0.00     0.062 C 
ATOM     31  C   UNK d   0      10.668 -14.279  -1.039  0.00  0.00    -0.013 A 
ATOM     32  C   UNK d   0      12.333 -11.354  -2.477  0.00  0.00     0.066 A 
BRANCH   8  33
ATOM     33  C   UNK d   0      13.305  -7.974  -3.549  0.00  0.00     0.151 C 
BRANCH  33  34
ATOM     34  C   UNK d   0      12.237  -7.045  -3.961  0.00  0.00     0.143 C 
ATOM     35  O   UNK d   0      12.402  -6.267  -4.911  0.00  0.00    -0.650 OA
BRANCH  34  36
ATOM     36  O   UNK d   0      11.043  -7.045  -3.279  0.00  0.00    -0.776 OA
ATOM     37  H   UNK d   0      10.869  -6.388  -2.506  0.00  0.00     0.167 HD
ENDBRANCH  34  36
ENDBRANCH  33  34
ENDBRANCH   8  33
BRANCH  31  38
ATOM     38  C   UNK d   0      10.537 -13.876   0.412  0.00  0.00     0.151 C 
BRANCH  38  39
ATOM     39  C   UNK d   0       9.587 -12.803   0.613  0.00  0.00     0.143 C 
ATOM     40  O   UNK d   0       9.611 -12.073   1.620  0.00  0.00    -0.650 OA
BRANCH  39  41
ATOM     41  O   UNK d   0       8.604 -12.567  -0.348  0.00  0.00    -0.776 OA
ATOM     42  H   UNK d   0       7.656 -12.883  -0.125  0.00  0.00     0.167 HD
ENDBRANCH  39  41
ENDBRANCH  38  39
ENDBRANCH  31  38
BRANCH  27  43
ATOM     43  C   UNK d   0       9.147 -16.293  -0.906  0.00  0.00     0.052 C 
BRANCH  43  44
ATOM     44  C   UNK d   0       9.511 -17.728  -1.110  0.00  0.00     0.115 C 
BRANCH  44  45
ATOM     45  C   UNK d   0       8.234 -18.485  -1.181  0.00  0.00     0.139 C 
ATOM     46  O   UNK d   0       7.408 -18.341  -0.245  0.00  0.00    -0.650 OA
BRANCH  45  47
ATOM     47  O   UNK d   0       7.921 -19.326  -2.226  0.00  0.00    -0.776 OA
ATOM     48  H   UNK d   0       7.104 -19.176  -2.841  0.00  0.00     0.167 HD
ENDBRANCH  45  47
ENDBRANCH  44  45
ENDBRANCH  43  44
ENDBRANCH  27  43
BRANCH  24  49
ATOM     49  C   UNK d   0       8.408 -18.376  -5.982  0.00  0.00     0.052 C 
BRANCH  49  50
ATOM     50  C   UNK d   0       7.103 -18.449  -5.231  0.00  0.00     0.115 C 
BRANCH  50  51
ATOM     51  C   UNK d   0       5.879 -18.402  -6.020  0.00  0.00     0.139 C 
ATOM     52  O   UNK d   0       5.028 -17.490  -5.894  0.00  0.00    -0.650 OA
BRANCH  51  53
ATOM     53  O   UNK d   0       5.623 -19.398  -6.950  0.00  0.00    -0.776 OA
ATOM     54  H   UNK d   0       6.322 -19.588  -7.647  0.00  0.00     0.167 HD
ENDBRANCH  51  53
ENDBRANCH  50  51
ENDBRANCH  49  50
ENDBRANCH  24  49
BRANCH  21  55
ATOM     55  C   UNK d   0       7.951 -16.635  -8.493  0.00  0.00     0.151 C 
BRANCH  55  56
ATOM     56  C   UNK d   0       8.331 -17.992  -8.913  0.00  0.00     0.143 C 
ATOM     57  O   UNK d   0       7.492 -18.872  -9.193  0.00  0.00    -0.650 OA
BRANCH  56  58
ATOM     58  O   UNK d   0       9.690 -18.290  -8.997  0.00  0.00    -0.776 OA
ATOM     59  H   UNK d   0      10.304 -17.475  -9.177  0.00  0.00     0.167 HD
ENDBRANCH  56  58
ENDBRANCH  55  56
ENDBRANCH  21  55
BRANCH  18  60
ATOM     60  C   UNK d   0      10.874 -12.328  -9.802  0.00  0.00     0.151 C 
BRANCH  60  61
ATOM     61  C   UNK d   0       9.522 -12.254 -10.376  0.00  0.00     0.143 C 
ATOM     62  O   UNK d   0       9.002 -13.054 -11.155  0.00  0.00    -0.650 OA
BRANCH  61  63
ATOM     63  O   UNK d   0       8.757 -11.133  -9.974  0.00  0.00    -0.776 OA
ATOM     64  H   UNK d   0       8.994 -10.206 -10.280  0.00  0.00     0.167 HD
ENDBRANCH  61  63
ENDBRANCH  60  61
ENDBRANCH  18  60
BRANCH  14  65
ATOM     65  C   UNK d   0      12.137  -9.876  -8.535  0.00  0.00     0.052 C 
BRANCH  65  66
ATOM     66  C   UNK d   0      11.306  -8.794  -9.128  0.00  0.00     0.115 C 
BRANCH  66  67
ATOM     67  C   UNK d   0      11.359  -8.550 -10.542  0.00  0.00     0.139 C 
ATOM     68  O   UNK d   0      10.999  -7.396 -10.980  0.00  0.00    -0.650 OA
BRANCH  67  69
ATOM     69  O   UNK d   0      11.763  -9.431 -11.545  0.00  0.00    -0.776 OA
ATOM     70  H   UNK d   0      11.109  -9.541 -12.334  0.00  0.00     0.167 HD
ENDBRANCH  67  69
ENDBRANCH  66  67
ENDBRANCH  65  66
ENDBRANCH  14  65
ENDBRANCH   6   7
ENDBRANCH   5   6
ENDBRANCH   2   5
TORSDOF 28
ENDMDL
MODEL 10
REMARK VINA RESULT:      -8.6      1.972      8.068
REMARK  28 active torsions:
REMARK  status: ('A' for Active; 'I' for Inactive)
REMARK    1  A    between atoms: C_2  and  O_3 
REMARK    2  A    between atoms: C_2  and  C_4 
REMARK    3  A    between atoms: C_4  and  C_5 
REMARK    4  A    between atoms: C_5  and  C_6 
REMARK    5  A    between atoms: C_7  and  C_8 
REMARK    6  A    between atoms: C_8  and  C_9 
REMARK    7  A    between atoms: C_9  and  O_11 
REMARK    8  A    between atoms: C_28  and  C_29 
REMARK    9  A    between atoms: C_29  and  C_30 
REMARK   10  A    between atoms: C_30  and  O_32 
REMARK   11  A    between atoms: C_33  and  C_34 
REMARK   12  A    between atoms: C_34  and  C_35 
REMARK   13  A    between atoms: C_35  and  C_36 
REMARK   14  A    between atoms: C_36  and  O_38 
REMARK   15  A    between atoms: C_39  and  C_40 
REMARK   16  A    between atoms: C_40  and  C_41 
REMARK   17  A    between atoms: C_41  and  C_42 
REMARK   18  A    between atoms: C_42  and  O_44 
REMARK   19  A    between atoms: C_45  and  C_46 
REMARK   20  A    between atoms: C_46  and  C_47 
REMARK   21  A    between atoms: C_47  and  O_49 
REMARK   22  A    between atoms: C_50  and  C_51 
REMARK   23  A    between atoms: C_51  and  C_52 
REMARK   24  A    between atoms: C_52  and  O_54 
REMARK   25  A    between atoms: C_55  and  C_56 
REMARK   26  A    between atoms: C_56  and  C_57 
REMARK   27  A    between atoms: C_57  and  C_58 
REMARK   28  A    between atoms: C_58  and  O_60 
ROOT
ATOM      1  O   UNK d   0      10.546 -19.702  -6.943  0.00  0.00    -0.650 OA
ATOM      2  C   UNK d   0      10.634 -19.166  -5.816  0.00  0.00     0.139 C 
ENDROOT
BRANCH   2   3
ATOM      3  O   UNK d   0      11.773 -19.351  -5.070  0.00  0.00    -0.776 OA
ATOM      4  H   UNK d   0      12.602 -19.793  -5.473  0.00  0.00     0.167 HD
ENDBRANCH   2   3
BRANCH   2   5
ATOM      5  C   UNK d   0       9.513 -18.336  -5.292  0.00  0.00     0.115 C 
BRANCH   5   6
ATOM      6  C   UNK d   0       9.685 -18.105  -3.816  0.00  0.00     0.052 C 
BRANCH   6   7
ATOM      7  C   UNK d   0       9.837 -16.643  -3.470  0.00  0.00    -0.020 A 
ATOM      8  C   UNK d   0       9.907 -16.108  -2.278  0.00  0.00    -0.011 A 
ATOM      9  C   UNK d   0      10.040 -14.670  -2.443  0.00  0.00     0.067 A 
ATOM     10  C   UNK d   0      10.180 -13.562  -1.593  0.00  0.00     0.062 C 
ATOM     11  N   UNK d   0      10.036 -14.417  -3.769  0.00  0.00    -0.248 NA
ATOM     12  C   UNK d   0      10.576 -12.267  -1.946  0.00  0.00     0.041 A 
ATOM     13  N   UNK d   0      10.237 -11.491  -2.993  0.00  0.00    -0.355 N 
ATOM     14  C   UNK d   0      11.534 -11.609  -1.154  0.00  0.00    -0.022 A 
ATOM     15  C   UNK d   0      10.961 -10.361  -2.890  0.00  0.00     0.042 A 
ATOM     16  H   UNK d   0       9.487 -11.730  -3.779  0.00  0.00     0.166 HD
ATOM     17  C   UNK d   0      10.995  -9.219  -3.715  0.00  0.00     0.062 C 
ATOM     18  C   UNK d   0      11.786 -10.398  -1.749  0.00  0.00    -0.013 A 
ATOM     19  C   UNK d   0      11.042  -9.145  -5.084  0.00  0.00     0.067 A 
ATOM     20  N   UNK d   0      10.833 -10.279  -5.758  0.00  0.00    -0.248 NA
ATOM     21  C   UNK d   0      11.288  -8.103  -6.066  0.00  0.00    -0.011 A 
ATOM     22  C   UNK d   0      10.926 -10.054  -7.110  0.00  0.00     0.066 A 
ATOM     23  C   UNK d   0      10.692 -11.144  -7.934  0.00  0.00     0.062 C 
ATOM     24  C   UNK d   0      11.223  -8.641  -7.249  0.00  0.00    -0.020 A 
ATOM     25  C   UNK d   0      10.282 -12.433  -7.559  0.00  0.00     0.041 A 
ATOM     26  N   UNK d   0      10.629 -13.211  -6.527  0.00  0.00    -0.355 N 
ATOM     27  C   UNK d   0       9.317 -13.092  -8.353  0.00  0.00    -0.022 A 
ATOM     28  C   UNK d   0       9.915 -14.343  -6.633  0.00  0.00     0.042 A 
ATOM     29  H   UNK d   0      11.391 -12.974  -5.744  0.00  0.00     0.166 HD
ATOM     30  C   UNK d   0       9.879 -15.490  -5.825  0.00  0.00     0.062 C 
ATOM     31  C   UNK d   0       9.079 -14.300  -7.774  0.00  0.00    -0.013 A 
ATOM     32  C   UNK d   0       9.917 -15.562  -4.441  0.00  0.00     0.066 A 
BRANCH   8  33
ATOM     33  C   UNK d   0       9.857 -16.816  -0.986  0.00  0.00     0.151 C 
BRANCH  33  34
ATOM     34  C   UNK d   0       8.495 -17.250  -0.625  0.00  0.00     0.143 C 
ATOM     35  O   UNK d   0       8.047 -18.335  -1.021  0.00  0.00    -0.650 OA
BRANCH  34  36
ATOM     36  O   UNK d   0       7.713 -16.436   0.160  0.00  0.00    -0.776 OA
ATOM     37  H   UNK d   0       7.814 -16.423   1.184  0.00  0.00     0.167 HD
ENDBRANCH  34  36
ENDBRANCH  33  34
ENDBRANCH   8  33
BRANCH  31  38
ATOM     38  C   UNK d   0       8.107 -15.348  -8.264  0.00  0.00     0.151 C 
BRANCH  38  39
ATOM     39  C   UNK d   0       6.764 -15.147  -7.763  0.00  0.00     0.143 C 
ATOM     40  O   UNK d   0       6.485 -14.246  -6.952  0.00  0.00    -0.650 OA
BRANCH  39  41
ATOM     41  O   UNK d   0       5.737 -15.985  -8.196  0.00  0.00    -0.776 OA
ATOM     42  H   UNK d   0       5.974 -16.973  -8.329  0.00  0.00     0.167 HD
ENDBRANCH  39  41
ENDBRANCH  38  39
ENDBRANCH  31  38
BRANCH  27  43
ATOM     43  C   UNK d   0       8.632 -12.625  -9.613  0.00  0.00     0.052 C 
BRANCH  43  44
ATOM     44  C   UNK d   0       9.361 -13.011 -10.859  0.00  0.00     0.115 C 
BRANCH  44  45
ATOM     45  C   UNK d   0       8.358 -13.629 -11.764  0.00  0.00     0.139 C 
ATOM     46  O   UNK d   0       7.143 -13.396 -11.548  0.00  0.00    -0.650 OA
BRANCH  45  47
ATOM     47  O   UNK d   0       8.706 -14.437 -12.825  0.00  0.00    -0.776 OA
ATOM     48  H   UNK d   0       9.686 -14.615 -13.096  0.00  0.00     0.167 HD
ENDBRANCH  45  47
ENDBRANCH  44  45
ENDBRANCH  43  44
ENDBRANCH  27  43
BRANCH  24  49
ATOM     49  C   UNK d   0      11.373  -7.937  -8.534  0.00  0.00     0.052 C 
BRANCH  49  50
ATOM     50  C   UNK d   0      11.347  -8.919  -9.677  0.00  0.00     0.115 C 
BRANCH  50  51
ATOM     51  C   UNK d   0      11.308  -8.369 -11.025  0.00  0.00     0.139 C 
ATOM     52  O   UNK d   0      11.964  -8.858 -11.975  0.00  0.00    -0.650 OA
BRANCH  51  53
ATOM     53  O   UNK d   0      10.522  -7.258 -11.291  0.00  0.00    -0.776 OA
ATOM     54  H   UNK d   0       9.670  -7.143 -10.770  0.00  0.00     0.167 HD
ENDBRANCH  51  53
ENDBRANCH  50  51
ENDBRANCH  49  50
ENDBRANCH  24  49
BRANCH  21  55
ATOM     55  C   UNK d   0      11.559  -6.676  -5.720  0.00  0.00     0.151 C 
BRANCH  55  56
ATOM     56  C   UNK d   0      12.956  -6.463  -5.312  0.00  0.00     0.143 C 
ATOM     57  O   UNK d   0      13.846  -6.110  -6.110  0.00  0.00    -0.650 OA
BRANCH  56  58
ATOM     58  O   UNK d   0      13.279  -6.668  -3.972  0.00  0.00    -0.776 OA
ATOM     59  H   UNK d   0      13.779  -5.882  -3.518  0.00  0.00     0.167 HD
ENDBRANCH  56  58
ENDBRANCH  55  56
ENDBRANCH  21  55
BRANCH  18  60
ATOM     60  C   UNK d   0      12.761  -9.368  -1.234  0.00  0.00     0.151 C 
BRANCH  60  61
ATOM     61  C   UNK d   0      14.097  -9.853  -1.613  0.00  0.00     0.143 C 
ATOM     62  O   UNK d   0      14.379 -10.587  -2.561  0.00  0.00    -0.650 OA
BRANCH  61  63
ATOM     63  O   UNK d   0      15.156  -9.412  -0.783  0.00  0.00    -0.776 OA
ATOM     64  H   UNK d   0      16.103  -9.392  -1.117  0.00  0.00     0.167 HD
ENDBRANCH  61  63
ENDBRANCH  60  61
ENDBRANCH  18  60
BRANCH  14  65
ATOM     65  C   UNK d   0      12.148 -11.991   0.163  0.00  0.00     0.052 C 
BRANCH  65  66
ATOM     66  C   UNK d   0      11.416 -11.433   1.331  0.00  0.00     0.115 C 
BRANCH  66  67
ATOM     67  C   UNK d   0      11.071 -12.290   2.430  0.00  0.00     0.139 C 
ATOM     68  O   UNK d   0      11.989 -12.603   3.275  0.00  0.00    -0.650 OA
BRANCH  67  69
ATOM     69  O   UNK d   0       9.828 -12.851   2.718  0.00  0.00    -0.776 OA
ATOM     70  H   UNK d   0       9.805 -13.506   3.512  0.00  0.00     0.167 HD
ENDBRANCH  67  69
ENDBRANCH  66  67
ENDBRANCH  65  66
ENDBRANCH  14  65
ENDBRANCH   6   7
ENDBRANCH   5   6
ENDBRANCH   2   5
TORSDOF 28
ENDMDL
MODEL 11
REMARK VINA RESULT:      -8.5      2.077      9.764
REMARK  28 active torsions:
REMARK  status: ('A' for Active; 'I' for Inactive)
REMARK    1  A    between atoms: C_2  and  O_3 
REMARK    2  A    between atoms: C_2  and  C_4 
REMARK    3  A    between atoms: C_4  and  C_5 
REMARK    4  A    between atoms: C_5  and  C_6 
REMARK    5  A    between atoms: C_7  and  C_8 
REMARK    6  A    between atoms: C_8  and  C_9 
REMARK    7  A    between atoms: C_9  and  O_11 
REMARK    8  A    between atoms: C_28  and  C_29 
REMARK    9  A    between atoms: C_29  and  C_30 
REMARK   10  A    between atoms: C_30  and  O_32 
REMARK   11  A    between atoms: C_33  and  C_34 
REMARK   12  A    between atoms: C_34  and  C_35 
REMARK   13  A    between atoms: C_35  and  C_36 
REMARK   14  A    between atoms: C_36  and  O_38 
REMARK   15  A    between atoms: C_39  and  C_40 
REMARK   16  A    between atoms: C_40  and  C_41 
REMARK   17  A    between atoms: C_41  and  C_42 
REMARK   18  A    between atoms: C_42  and  O_44 
REMARK   19  A    between atoms: C_45  and  C_46 
REMARK   20  A    between atoms: C_46  and  C_47 
REMARK   21  A    between atoms: C_47  and  O_49 
REMARK   22  A    between atoms: C_50  and  C_51 
REMARK   23  A    between atoms: C_51  and  C_52 
REMARK   24  A    between atoms: C_52  and  O_54 
REMARK   25  A    between atoms: C_55  and  C_56 
REMARK   26  A    between atoms: C_56  and  C_57 
REMARK   27  A    between atoms: C_57  and  C_58 
REMARK   28  A    between atoms: C_58  and  O_60 
ROOT
ATOM      1  O   UNK d   0      10.490  -4.549  -6.572  0.00  0.00    -0.650 OA
ATOM      2  C   UNK d   0      11.095  -5.571  -6.964  0.00  0.00     0.139 C 
ENDROOT
BRANCH   2   3
ATOM      3  O   UNK d   0      11.816  -5.521  -8.133  0.00  0.00    -0.776 OA
ATOM      4  H   UNK d   0      11.453  -5.037  -8.956  0.00  0.00     0.167 HD
ENDBRANCH   2   3
BRANCH   2   5
ATOM      5  C   UNK d   0      11.032  -6.830  -6.167  0.00  0.00     0.115 C 
BRANCH   5   6
ATOM      6  C   UNK d   0      12.203  -7.714  -6.502  0.00  0.00     0.052 C 
BRANCH   6   7
ATOM      7  C   UNK d   0      12.039  -9.119  -5.975  0.00  0.00    -0.020 A 
ATOM      8  C   UNK d   0      12.515  -9.614  -4.861  0.00  0.00    -0.011 A 
ATOM      9  C   UNK d   0      12.108 -11.007  -4.784  0.00  0.00     0.067 A 
ATOM     10  C   UNK d   0      12.266 -12.059  -3.867  0.00  0.00     0.062 C 
ATOM     11  N   UNK d   0      11.393 -11.278  -5.895  0.00  0.00    -0.248 NA
ATOM     12  C   UNK d   0      11.560 -13.266  -3.834  0.00  0.00     0.041 A 
ATOM     13  N   UNK d   0      11.195 -14.107  -4.820  0.00  0.00    -0.355 N 
ATOM     14  C   UNK d   0      11.063 -13.730  -2.602  0.00  0.00    -0.022 A 
ATOM     15  C   UNK d   0      10.471 -15.088  -4.247  0.00  0.00     0.042 A 
ATOM     16  H   UNK d   0      11.459 -14.020  -5.897  0.00  0.00     0.166 HD
ATOM     17  C   UNK d   0       9.852 -16.218  -4.817  0.00  0.00     0.062 C 
ATOM     18  C   UNK d   0      10.367 -14.885  -2.857  0.00  0.00    -0.013 A 
ATOM     19  C   UNK d   0       9.097 -16.303  -5.958  0.00  0.00     0.067 A 
ATOM     20  N   UNK d   0       9.092 -15.236  -6.762  0.00  0.00    -0.248 NA
ATOM     21  C   UNK d   0       8.231 -17.300  -6.566  0.00  0.00    -0.011 A 
ATOM     22  C   UNK d   0       8.285 -15.463  -7.850  0.00  0.00     0.066 A 
ATOM     23  C   UNK d   0       8.218 -14.445  -8.790  0.00  0.00     0.062 C 
ATOM     24  C   UNK d   0       7.756 -16.801  -7.671  0.00  0.00    -0.020 A 
ATOM     25  C   UNK d   0       8.945 -13.245  -8.812  0.00  0.00     0.041 A 
ATOM     26  N   UNK d   0       9.296 -12.401  -7.834  0.00  0.00    -0.355 N 
ATOM     27  C   UNK d   0       9.448 -12.783 -10.048  0.00  0.00    -0.022 A 
ATOM     28  C   UNK d   0      10.010 -11.418  -8.404  0.00  0.00     0.042 A 
ATOM     29  H   UNK d   0       9.021 -12.485  -6.754  0.00  0.00     0.166 HD
ATOM     30  C   UNK d   0      10.624 -10.283  -7.851  0.00  0.00     0.062 C 
ATOM     31  C   UNK d   0      10.123 -11.628  -9.799  0.00  0.00    -0.013 A 
ATOM     32  C   UNK d   0      11.314 -10.183  -6.653  0.00  0.00     0.066 A 
BRANCH   8  33
ATOM     33  C   UNK d   0      13.326  -8.906  -3.853  0.00  0.00     0.151 C 
BRANCH  33  34
ATOM     34  C   UNK d   0      12.535  -7.957  -3.049  0.00  0.00     0.143 C 
ATOM     35  O   UNK d   0      11.450  -8.293  -2.554  0.00  0.00    -0.650 OA
BRANCH  34  36
ATOM     36  O   UNK d   0      13.010  -6.682  -2.847  0.00  0.00    -0.776 OA
ATOM     37  H   UNK d   0      12.975  -6.239  -1.919  0.00  0.00     0.167 HD
ENDBRANCH  34  36
ENDBRANCH  33  34
ENDBRANCH   8  33
BRANCH  31  38
ATOM     38  C   UNK d   0      10.845 -10.779 -10.819  0.00  0.00     0.151 C 
BRANCH  38  39
ATOM     39  C   UNK d   0      12.261 -11.069 -10.890  0.00  0.00     0.143 C 
ATOM     40  O   UNK d   0      12.698 -12.227 -11.011  0.00  0.00    -0.650 OA
BRANCH  39  41
ATOM     41  O   UNK d   0      13.180 -10.022 -10.823  0.00  0.00    -0.776 OA
ATOM     42  H   UNK d   0      13.993 -10.081 -11.445  0.00  0.00     0.167 HD
ENDBRANCH  39  41
ENDBRANCH  38  39
ENDBRANCH  31  38
BRANCH  27  43
ATOM     43  C   UNK d   0       9.310 -13.385 -11.424  0.00  0.00     0.052 C 
BRANCH  43  44
ATOM     44  C   UNK d   0       7.892 -13.489 -11.884  0.00  0.00     0.115 C 
BRANCH  44  45
ATOM     45  C   UNK d   0       7.886 -14.433 -13.032  0.00  0.00     0.139 C 
ATOM     46  O   UNK d   0       8.962 -14.614 -13.654  0.00  0.00    -0.650 OA
BRANCH  45  47
ATOM     47  O   UNK d   0       6.758 -15.115 -13.432  0.00  0.00    -0.776 OA
ATOM     48  H   UNK d   0       6.382 -15.062 -14.393  0.00  0.00     0.167 HD
ENDBRANCH  45  47
ENDBRANCH  44  45
ENDBRANCH  43  44
ENDBRANCH  27  43
BRANCH  24  49
ATOM     49  C   UNK d   0       6.866 -17.487  -8.622  0.00  0.00     0.052 C 
BRANCH  49  50
ATOM     50  C   UNK d   0       5.457 -16.969  -8.489  0.00  0.00     0.115 C 
BRANCH  50  51
ATOM     51  C   UNK d   0       4.446 -17.561  -9.356  0.00  0.00     0.139 C 
ATOM     52  O   UNK d   0       4.681 -17.888 -10.543  0.00  0.00    -0.650 OA
BRANCH  51  53
ATOM     53  O   UNK d   0       3.166 -17.777  -8.869  0.00  0.00    -0.776 OA
ATOM     54  H   UNK d   0       2.800 -17.132  -8.192  0.00  0.00     0.167 HD
ENDBRANCH  51  53
ENDBRANCH  50  51
ENDBRANCH  49  50
ENDBRANCH  24  49
BRANCH  21  55
ATOM     55  C   UNK d   0       7.973 -18.650  -5.982  0.00  0.00     0.151 C 
BRANCH  55  56
ATOM     56  C   UNK d   0       6.972 -18.602  -4.906  0.00  0.00     0.143 C 
ATOM     57  O   UNK d   0       5.782 -18.287  -5.104  0.00  0.00    -0.650 OA
BRANCH  56  58
ATOM     58  O   UNK d   0       7.389 -18.927  -3.616  0.00  0.00    -0.776 OA
ATOM     59  H   UNK d   0       7.739 -18.128  -3.057  0.00  0.00     0.167 HD
ENDBRANCH  56  58
ENDBRANCH  55  56
ENDBRANCH  21  55
BRANCH  18  60
ATOM     60  C   UNK d   0       9.658 -15.715  -1.816  0.00  0.00     0.151 C 
BRANCH  60  61
ATOM     61  C   UNK d   0      10.421 -16.967  -1.708  0.00  0.00     0.143 C 
ATOM     62  O   UNK d   0      11.639 -17.084  -1.571  0.00  0.00    -0.650 OA
BRANCH  61  63
ATOM     63  O   UNK d   0       9.648 -18.151  -1.771  0.00  0.00    -0.776 OA
ATOM     64  H   UNK d   0       8.708 -18.176  -1.419  0.00  0.00     0.167 HD
ENDBRANCH  61  63
ENDBRANCH  60  61
ENDBRANCH  18  60
BRANCH  14  65
ATOM     65  C   UNK d   0      11.277 -13.222  -1.204  0.00  0.00     0.052 C 
BRANCH  65  66
ATOM     66  C   UNK d   0      10.157 -12.372  -0.717  0.00  0.00     0.115 C 
BRANCH  66  67
ATOM     67  C   UNK d   0       9.952 -12.207   0.695  0.00  0.00     0.139 C 
ATOM     68  O   UNK d   0      10.859 -12.633   1.501  0.00  0.00    -0.650 OA
BRANCH  67  69
ATOM     69  O   UNK d   0       8.858 -11.626   1.336  0.00  0.00    -0.776 OA
ATOM     70  H   UNK d   0       8.110 -12.274   1.622  0.00  0.00     0.167 HD
ENDBRANCH  67  69
ENDBRANCH  66  67
ENDBRANCH  65  66
ENDBRANCH  14  65
ENDBRANCH   6   7
ENDBRANCH   5   6
ENDBRANCH   2   5
TORSDOF 28
ENDMDL
MODEL 12
REMARK VINA RESULT:      -8.5      3.590     11.817
REMARK  28 active torsions:
REMARK  status: ('A' for Active; 'I' for Inactive)
REMARK    1  A    between atoms: C_2  and  O_3 
REMARK    2  A    between atoms: C_2  and  C_4 
REMARK    3  A    between atoms: C_4  and  C_5 
REMARK    4  A    between atoms: C_5  and  C_6 
REMARK    5  A    between atoms: C_7  and  C_8 
REMARK    6  A    between atoms: C_8  and  C_9 
REMARK    7  A    between atoms: C_9  and  O_11 
REMARK    8  A    between atoms: C_28  and  C_29 
REMARK    9  A    between atoms: C_29  and  C_30 
REMARK   10  A    between atoms: C_30  and  O_32 
REMARK   11  A    between atoms: C_33  and  C_34 
REMARK   12  A    between atoms: C_34  and  C_35 
REMARK   13  A    between atoms: C_35  and  C_36 
REMARK   14  A    between atoms: C_36  and  O_38 
REMARK   15  A    between atoms: C_39  and  C_40 
REMARK   16  A    between atoms: C_40  and  C_41 
REMARK   17  A    between atoms: C_41  and  C_42 
REMARK   18  A    between atoms: C_42  and  O_44 
REMARK   19  A    between atoms: C_45  and  C_46 
REMARK   20  A    between atoms: C_46  and  C_47 
REMARK   21  A    between atoms: C_47  and  O_49 
REMARK   22  A    between atoms: C_50  and  C_51 
REMARK   23  A    between atoms: C_51  and  C_52 
REMARK   24  A    between atoms: C_52  and  O_54 
REMARK   25  A    between atoms: C_55  and  C_56 
REMARK   26  A    between atoms: C_56  and  C_57 
REMARK   27  A    between atoms: C_57  and  C_58 
REMARK   28  A    between atoms: C_58  and  O_60 
ROOT
ATOM      1  O   UNK d   0      13.941 -14.277  -2.740  0.00  0.00    -0.650 OA
ATOM      2  C   UNK d   0      13.291 -13.756  -3.674  0.00  0.00     0.139 C 
ENDROOT
BRANCH   2   3
ATOM      3  O   UNK d   0      13.675 -13.988  -4.973  0.00  0.00    -0.776 OA
ATOM      4  H   UNK d   0      14.230 -14.809  -5.220  0.00  0.00     0.167 HD
ENDBRANCH   2   3
BRANCH   2   5
ATOM      5  C   UNK d   0      12.113 -12.893  -3.376  0.00  0.00     0.115 C 
BRANCH   5   6
ATOM      6  C   UNK d   0      11.157 -13.617  -2.467  0.00  0.00     0.052 C 
BRANCH   6   7
ATOM      7  C   UNK d   0      10.478 -14.782  -3.147  0.00  0.00    -0.020 A 
ATOM      8  C   UNK d   0      10.345 -16.003  -2.695  0.00  0.00    -0.011 A 
ATOM      9  C   UNK d   0       9.631 -16.773  -3.700  0.00  0.00     0.067 A 
ATOM     10  C   UNK d   0       9.165 -18.091  -3.822  0.00  0.00     0.062 C 
ATOM     11  N   UNK d   0       9.372 -15.943  -4.732  0.00  0.00    -0.248 NA
ATOM     12  C   UNK d   0       8.245 -18.581  -4.756  0.00  0.00     0.041 A 
ATOM     13  N   UNK d   0       8.116 -18.354  -6.077  0.00  0.00    -0.355 N 
ATOM     14  C   UNK d   0       7.208 -19.422  -4.312  0.00  0.00    -0.022 A 
ATOM     15  C   UNK d   0       7.019 -19.022  -6.481  0.00  0.00     0.042 A 
ATOM     16  H   UNK d   0       8.797 -17.749  -6.714  0.00  0.00     0.166 HD
ATOM     17  C   UNK d   0       6.433 -19.127  -7.758  0.00  0.00     0.062 C 
ATOM     18  C   UNK d   0       6.423 -19.704  -5.403  0.00  0.00    -0.013 A 
ATOM     19  C   UNK d   0       6.194 -18.141  -8.681  0.00  0.00     0.067 A 
ATOM     20  N   UNK d   0       6.755 -16.951  -8.453  0.00  0.00    -0.248 NA
ATOM     21  C   UNK d   0       5.435 -18.027  -9.915  0.00  0.00    -0.011 A 
ATOM     22  C   UNK d   0       6.416 -16.066  -9.448  0.00  0.00     0.066 A 
ATOM     23  C   UNK d   0       6.964 -14.795  -9.355  0.00  0.00     0.062 C 
ATOM     24  C   UNK d   0       5.566 -16.809 -10.356  0.00  0.00    -0.020 A 
ATOM     25  C   UNK d   0       7.897 -14.327  -8.417  0.00  0.00     0.041 A 
ATOM     26  N   UNK d   0       8.017 -14.541  -7.101  0.00  0.00    -0.355 N 
ATOM     27  C   UNK d   0       8.940 -13.486  -8.863  0.00  0.00    -0.022 A 
ATOM     28  C   UNK d   0       9.104 -13.868  -6.693  0.00  0.00     0.042 A 
ATOM     29  H   UNK d   0       7.325 -15.141  -6.460  0.00  0.00     0.166 HD
ATOM     30  C   UNK d   0       9.694 -13.747  -5.425  0.00  0.00     0.062 C 
ATOM     31  C   UNK d   0       9.709 -13.192  -7.780  0.00  0.00    -0.013 A 
ATOM     32  C   UNK d   0       9.856 -14.730  -4.461  0.00  0.00     0.066 A 
BRANCH   8  33
ATOM     33  C   UNK d   0      10.831 -16.527  -1.406  0.00  0.00     0.151 C 
BRANCH  33  34
ATOM     34  C   UNK d   0      12.254 -16.911  -1.445  0.00  0.00     0.143 C 
ATOM     35  O   UNK d   0      13.023 -16.596  -0.526  0.00  0.00    -0.650 OA
BRANCH  34  36
ATOM     36  O   UNK d   0      12.731 -17.627  -2.518  0.00  0.00    -0.776 OA
ATOM     37  H   UNK d   0      13.735 -17.829  -2.622  0.00  0.00     0.167 HD
ENDBRANCH  34  36
ENDBRANCH  33  34
ENDBRANCH   8  33
BRANCH  31  38
ATOM     38  C   UNK d   0      10.951 -12.331  -7.775  0.00  0.00     0.151 C 
BRANCH  38  39
ATOM     39  C   UNK d   0      10.672 -10.945  -7.468  0.00  0.00     0.143 C 
ATOM     40  O   UNK d   0      10.966 -10.434  -6.373  0.00  0.00    -0.650 OA
BRANCH  39  41
ATOM     41  O   UNK d   0      10.053 -10.141  -8.425  0.00  0.00    -0.776 OA
ATOM     42  H   UNK d   0       9.037 -10.033  -8.350  0.00  0.00     0.167 HD
ENDBRANCH  39  41
ENDBRANCH  38  39
ENDBRANCH  31  38
BRANCH  27  43
ATOM     43  C   UNK d   0       9.223 -12.965 -10.250  0.00  0.00     0.052 C 
BRANCH  43  44
ATOM     44  C   UNK d   0       8.032 -13.008 -11.152  0.00  0.00     0.115 C 
BRANCH  44  45
ATOM     45  C   UNK d   0       8.379 -13.925 -12.269  0.00  0.00     0.139 C 
ATOM     46  O   UNK d   0       7.494 -14.176 -13.124  0.00  0.00    -0.650 OA
BRANCH  45  47
ATOM     47  O   UNK d   0       9.624 -14.500 -12.405  0.00  0.00    -0.776 OA
ATOM     48  H   UNK d   0      10.488 -13.945 -12.513  0.00  0.00     0.167 HD
ENDBRANCH  45  47
ENDBRANCH  44  45
ENDBRANCH  43  44
ENDBRANCH  27  43
BRANCH  24  49
ATOM     49  C   UNK d   0       4.992 -16.271 -11.602  0.00  0.00     0.052 C 
BRANCH  49  50
ATOM     50  C   UNK d   0       3.519 -16.005 -11.429  0.00  0.00     0.115 C 
BRANCH  50  51
ATOM     51  C   UNK d   0       2.845 -15.274 -12.493  0.00  0.00     0.139 C 
ATOM     52  O   UNK d   0       2.125 -15.837 -13.351  0.00  0.00    -0.650 OA
BRANCH  51  53
ATOM     53  O   UNK d   0       2.995 -13.898 -12.581  0.00  0.00    -0.776 OA
ATOM     54  H   UNK d   0       2.722 -13.339 -11.793  0.00  0.00     0.167 HD
ENDBRANCH  51  53
ENDBRANCH  50  51
ENDBRANCH  49  50
ENDBRANCH  24  49
BRANCH  21  55
ATOM     55  C   UNK d   0       4.662 -19.148 -10.527  0.00  0.00     0.151 C 
BRANCH  55  56
ATOM     56  C   UNK d   0       3.659 -19.696  -9.601  0.00  0.00     0.143 C 
ATOM     57  O   UNK d   0       3.656 -20.889  -9.238  0.00  0.00    -0.650 OA
BRANCH  56  58
ATOM     58  O   UNK d   0       2.679 -18.831  -9.119  0.00  0.00    -0.776 OA
ATOM     59  H   UNK d   0       1.752 -19.266  -8.960  0.00  0.00     0.167 HD
ENDBRANCH  56  58
ENDBRANCH  55  56
ENDBRANCH  21  55
BRANCH  18  60
ATOM     60  C   UNK d   0       5.188 -20.570  -5.378  0.00  0.00     0.151 C 
BRANCH  60  61
ATOM     61  C   UNK d   0       4.050 -19.657  -5.562  0.00  0.00     0.143 C 
ATOM     62  O   UNK d   0       3.929 -18.520  -5.104  0.00  0.00    -0.650 OA
BRANCH  61  63
ATOM     63  O   UNK d   0       2.994 -20.163  -6.357  0.00  0.00    -0.776 OA
ATOM     64  H   UNK d   0       2.329 -19.547  -6.789  0.00  0.00     0.167 HD
ENDBRANCH  61  63
ENDBRANCH  60  61
ENDBRANCH  18  60
BRANCH  14  65
ATOM     65  C   UNK d   0       6.962 -20.052  -2.971  0.00  0.00     0.052 C 
BRANCH  65  66
ATOM     66  C   UNK d   0       5.853 -19.406  -2.219  0.00  0.00     0.115 C 
BRANCH  66  67
ATOM     67  C   UNK d   0       4.684 -20.168  -1.881  0.00  0.00     0.139 C 
ATOM     68  O   UNK d   0       4.698 -21.438  -2.085  0.00  0.00    -0.650 OA
BRANCH  67  69
ATOM     69  O   UNK d   0       3.487 -19.700  -1.341  0.00  0.00    -0.776 OA
ATOM     70  H   UNK d   0       2.902 -19.132  -1.972  0.00  0.00     0.167 HD
ENDBRANCH  67  69
ENDBRANCH  66  67
ENDBRANCH  65  66
ENDBRANCH  14  65
ENDBRANCH   6   7
ENDBRANCH   5   6
ENDBRANCH   2   5
TORSDOF 28
ENDMDL
MODEL 13
REMARK VINA RESULT:      -8.5      3.787     10.286
REMARK  28 active torsions:
REMARK  status: ('A' for Active; 'I' for Inactive)
REMARK    1  A    between atoms: C_2  and  O_3 
REMARK    2  A    between atoms: C_2  and  C_4 
REMARK    3  A    between atoms: C_4  and  C_5 
REMARK    4  A    between atoms: C_5  and  C_6 
REMARK    5  A    between atoms: C_7  and  C_8 
REMARK    6  A    between atoms: C_8  and  C_9 
REMARK    7  A    between atoms: C_9  and  O_11 
REMARK    8  A    between atoms: C_28  and  C_29 
REMARK    9  A    between atoms: C_29  and  C_30 
REMARK   10  A    between atoms: C_30  and  O_32 
REMARK   11  A    between atoms: C_33  and  C_34 
REMARK   12  A    between atoms: C_34  and  C_35 
REMARK   13  A    between atoms: C_35  and  C_36 
REMARK   14  A    between atoms: C_36  and  O_38 
REMARK   15  A    between atoms: C_39  and  C_40 
REMARK   16  A    between atoms: C_40  and  C_41 
REMARK   17  A    between atoms: C_41  and  C_42 
REMARK   18  A    between atoms: C_42  and  O_44 
REMARK   19  A    between atoms: C_45  and  C_46 
REMARK   20  A    between atoms: C_46  and  C_47 
REMARK   21  A    between atoms: C_47  and  O_49 
REMARK   22  A    between atoms: C_50  and  C_51 
REMARK   23  A    between atoms: C_51  and  C_52 
REMARK   24  A    between atoms: C_52  and  O_54 
REMARK   25  A    between atoms: C_55  and  C_56 
REMARK   26  A    between atoms: C_56  and  C_57 
REMARK   27  A    between atoms: C_57  and  C_58 
REMARK   28  A    between atoms: C_58  and  O_60 
ROOT
ATOM      1  O   UNK d   0      11.760 -19.314  -5.676  0.00  0.00    -0.650 OA
ATOM      2  C   UNK d   0      11.687 -18.974  -4.475  0.00  0.00     0.139 C 
ENDROOT
BRANCH   2   3
ATOM      3  O   UNK d   0      12.738 -18.299  -3.901  0.00  0.00    -0.776 OA
ATOM      4  H   UNK d   0      12.933 -17.325  -4.141  0.00  0.00     0.167 HD
ENDBRANCH   2   3
BRANCH   2   5
ATOM      5  C   UNK d   0      10.472 -19.301  -3.676  0.00  0.00     0.115 C 
BRANCH   5   6
ATOM      6  C   UNK d   0       9.864 -18.042  -3.120  0.00  0.00     0.052 C 
BRANCH   6   7
ATOM      7  C   UNK d   0       9.497 -17.049  -4.197  0.00  0.00    -0.020 A 
ATOM      8  C   UNK d   0       9.847 -15.791  -4.275  0.00  0.00    -0.011 A 
ATOM      9  C   UNK d   0       9.249 -15.237  -5.478  0.00  0.00     0.067 A 
ATOM     10  C   UNK d   0       9.251 -13.994  -6.130  0.00  0.00     0.062 C 
ATOM     11  N   UNK d   0       8.546 -16.226  -6.068  0.00  0.00    -0.248 NA
ATOM     12  C   UNK d   0       8.838 -13.723  -7.439  0.00  0.00     0.041 A 
ATOM     13  N   UNK d   0       7.768 -14.149  -8.137  0.00  0.00    -0.355 N 
ATOM     14  C   UNK d   0       9.650 -12.916  -8.256  0.00  0.00    -0.022 A 
ATOM     15  C   UNK d   0       7.885 -13.640  -9.378  0.00  0.00     0.042 A 
ATOM     16  H   UNK d   0       6.936 -14.781  -7.755  0.00  0.00     0.166 HD
ATOM     17  C   UNK d   0       7.045 -13.771 -10.502  0.00  0.00     0.062 C 
ATOM     18  C   UNK d   0       9.053 -12.861  -9.491  0.00  0.00    -0.013 A 
ATOM     19  C   UNK d   0       6.441 -14.897 -11.001  0.00  0.00     0.067 A 
ATOM     20  N   UNK d   0       6.474 -15.990 -10.236  0.00  0.00    -0.248 NA
ATOM     21  C   UNK d   0       5.741 -15.251 -12.224  0.00  0.00    -0.011 A 
ATOM     22  C   UNK d   0       5.847 -17.035 -10.870  0.00  0.00     0.066 A 
ATOM     23  C   UNK d   0       5.775 -18.229 -10.167  0.00  0.00     0.062 C 
ATOM     24  C   UNK d   0       5.400 -16.505 -12.143  0.00  0.00    -0.020 A 
ATOM     25  C   UNK d   0       6.185 -18.477  -8.848  0.00  0.00     0.041 A 
ATOM     26  N   UNK d   0       7.256 -18.065  -8.159  0.00  0.00    -0.355 N 
ATOM     27  C   UNK d   0       5.366 -19.283  -8.027  0.00  0.00    -0.022 A 
ATOM     28  C   UNK d   0       7.146 -18.579  -6.923  0.00  0.00     0.042 A 
ATOM     29  H   UNK d   0       8.096 -17.439  -8.548  0.00  0.00     0.166 HD
ATOM     30  C   UNK d   0       7.978 -18.464  -5.799  0.00  0.00     0.062 C 
ATOM     31  C   UNK d   0       5.966 -19.352  -6.808  0.00  0.00    -0.013 A 
ATOM     32  C   UNK d   0       8.655 -17.343  -5.347  0.00  0.00     0.066 A 
BRANCH   8  33
ATOM     33  C   UNK d   0      10.692 -15.046  -3.324  0.00  0.00     0.151 C 
BRANCH  33  34
ATOM     34  C   UNK d   0       9.906 -14.318  -2.312  0.00  0.00     0.143 C 
ATOM     35  O   UNK d   0       9.541 -13.150  -2.509  0.00  0.00    -0.650 OA
BRANCH  34  36
ATOM     36  O   UNK d   0       9.576 -14.945  -1.133  0.00  0.00    -0.776 OA
ATOM     37  H   UNK d   0       9.088 -15.851  -1.128  0.00  0.00     0.167 HD
ENDBRANCH  34  36
ENDBRANCH  33  34
ENDBRANCH   8  33
BRANCH  31  38
ATOM     38  C   UNK d   0       5.447 -20.096  -5.600  0.00  0.00     0.151 C 
BRANCH  38  39
ATOM     39  C   UNK d   0       4.381 -19.390  -4.921  0.00  0.00     0.143 C 
ATOM     40  O   UNK d   0       4.008 -18.256  -5.268  0.00  0.00    -0.650 OA
BRANCH  39  41
ATOM     41  O   UNK d   0       3.741 -19.992  -3.838  0.00  0.00    -0.776 OA
ATOM     42  H   UNK d   0       4.341 -20.419  -3.126  0.00  0.00     0.167 HD
ENDBRANCH  39  41
ENDBRANCH  38  39
ENDBRANCH  31  38
BRANCH  27  43
ATOM     43  C   UNK d   0       4.067 -19.975  -8.355  0.00  0.00     0.052 C 
BRANCH  43  44
ATOM     44  C   UNK d   0       4.227 -21.435  -8.627  0.00  0.00     0.115 C 
BRANCH  44  45
ATOM     45  C   UNK d   0       4.429 -21.574 -10.092  0.00  0.00     0.139 C 
ATOM     46  O   UNK d   0       3.808 -20.790 -10.852  0.00  0.00    -0.650 OA
BRANCH  45  47
ATOM     47  O   UNK d   0       5.268 -22.518 -10.645  0.00  0.00    -0.776 OA
ATOM     48  H   UNK d   0       5.410 -22.614 -11.663  0.00  0.00     0.167 HD
ENDBRANCH  45  47
ENDBRANCH  44  45
ENDBRANCH  43  44
ENDBRANCH  27  43
BRANCH  24  49
ATOM     49  C   UNK d   0       4.637 -17.265 -13.149  0.00  0.00     0.052 C 
BRANCH  49  50
ATOM     50  C   UNK d   0       5.575 -17.968 -14.096  0.00  0.00     0.115 C 
BRANCH  50  51
ATOM     51  C   UNK d   0       5.342 -19.386 -14.332  0.00  0.00     0.139 C 
ATOM     52  O   UNK d   0       5.599 -19.941 -15.427  0.00  0.00    -0.650 OA
BRANCH  51  53
ATOM     53  O   UNK d   0       4.811 -20.172 -13.321  0.00  0.00    -0.776 OA
ATOM     54  H   UNK d   0       3.830 -20.386 -13.349  0.00  0.00     0.167 HD
ENDBRANCH  51  53
ENDBRANCH  50  51
ENDBRANCH  49  50
ENDBRANCH  24  49
BRANCH  21  55
ATOM     55  C   UNK d   0       5.482 -14.299 -13.345  0.00  0.00     0.151 C 
BRANCH  55  56
ATOM     56  C   UNK d   0       6.474 -14.434 -14.423  0.00  0.00     0.143 C 
ATOM     57  O   UNK d   0       6.195 -14.250 -15.624  0.00  0.00    -0.650 OA
BRANCH  56  58
ATOM     58  O   UNK d   0       7.776 -14.781 -14.067  0.00  0.00    -0.776 OA
ATOM     59  H   UNK d   0       8.461 -14.004 -14.105  0.00  0.00     0.167 HD
ENDBRANCH  56  58
ENDBRANCH  55  56
ENDBRANCH  21  55
BRANCH  18  60
ATOM     60  C   UNK d   0       9.594 -12.107 -10.680  0.00  0.00     0.151 C 
BRANCH  60  61
ATOM     61  C   UNK d   0      10.344 -13.091 -11.476  0.00  0.00     0.143 C 
ATOM     62  O   UNK d   0       9.880 -14.019 -12.138  0.00  0.00    -0.650 OA
BRANCH  61  63
ATOM     63  O   UNK d   0      11.751 -12.930 -11.461  0.00  0.00    -0.776 OA
ATOM     64  H   UNK d   0      12.174 -12.049 -11.695  0.00  0.00     0.167 HD
ENDBRANCH  61  63
ENDBRANCH  60  61
ENDBRANCH  18  60
BRANCH  14  65
ATOM     65  C   UNK d   0      10.883 -12.121  -7.933  0.00  0.00     0.052 C 
BRANCH  65  66
ATOM     66  C   UNK d   0      10.597 -10.685  -7.671  0.00  0.00     0.115 C 
BRANCH  66  67
ATOM     67  C   UNK d   0      11.351  -9.672  -8.354  0.00  0.00     0.139 C 
ATOM     68  O   UNK d   0      12.581  -9.494  -8.024  0.00  0.00    -0.650 OA
BRANCH  67  69
ATOM     69  O   UNK d   0      10.914  -8.821  -9.369  0.00  0.00    -0.776 OA
ATOM     70  H   UNK d   0      11.654  -8.374  -9.929  0.00  0.00     0.167 HD
ENDBRANCH  67  69
ENDBRANCH  66  67
ENDBRANCH  65  66
ENDBRANCH  14  65
ENDBRANCH   6   7
ENDBRANCH   5   6
ENDBRANCH   2   5
TORSDOF 28
ENDMDL
MODEL 14
REMARK VINA RESULT:      -8.4      3.587     11.834
REMARK  28 active torsions:
REMARK  status: ('A' for Active; 'I' for Inactive)
REMARK    1  A    between atoms: C_2  and  O_3 
REMARK    2  A    between atoms: C_2  and  C_4 
REMARK    3  A    between atoms: C_4  and  C_5 
REMARK    4  A    between atoms: C_5  and  C_6 
REMARK    5  A    between atoms: C_7  and  C_8 
REMARK    6  A    between atoms: C_8  and  C_9 
REMARK    7  A    between atoms: C_9  and  O_11 
REMARK    8  A    between atoms: C_28  and  C_29 
REMARK    9  A    between atoms: C_29  and  C_30 
REMARK   10  A    between atoms: C_30  and  O_32 
REMARK   11  A    between atoms: C_33  and  C_34 
REMARK   12  A    between atoms: C_34  and  C_35 
REMARK   13  A    between atoms: C_35  and  C_36 
REMARK   14  A    between atoms: C_36  and  O_38 
REMARK   15  A    between atoms: C_39  and  C_40 
REMARK   16  A    between atoms: C_40  and  C_41 
REMARK   17  A    between atoms: C_41  and  C_42 
REMARK   18  A    between atoms: C_42  and  O_44 
REMARK   19  A    between atoms: C_45  and  C_46 
REMARK   20  A    between atoms: C_46  and  C_47 
REMARK   21  A    between atoms: C_47  and  O_49 
REMARK   22  A    between atoms: C_50  and  C_51 
REMARK   23  A    between atoms: C_51  and  C_52 
REMARK   24  A    between atoms: C_52  and  O_54 
REMARK   25  A    between atoms: C_55  and  C_56 
REMARK   26  A    between atoms: C_56  and  C_57 
REMARK   27  A    between atoms: C_57  and  C_58 
REMARK   28  A    between atoms: C_58  and  O_60 
ROOT
ATOM      1  O   UNK d   0      13.712 -14.622  -2.606  0.00  0.00    -0.650 OA
ATOM      2  C   UNK d   0      13.247 -13.957  -3.558  0.00  0.00     0.139 C 
ENDROOT
BRANCH   2   3
ATOM      3  O   UNK d   0      13.966 -13.858  -4.725  0.00  0.00    -0.776 OA
ATOM      4  H   UNK d   0      13.937 -13.008  -5.292  0.00  0.00     0.167 HD
ENDBRANCH   2   3
BRANCH   2   5
ATOM      5  C   UNK d   0      11.927 -13.280  -3.423  0.00  0.00     0.115 C 
BRANCH   5   6
ATOM      6  C   UNK d   0      10.951 -14.183  -2.718  0.00  0.00     0.052 C 
BRANCH   6   7
ATOM      7  C   UNK d   0      10.284 -15.162  -3.655  0.00  0.00    -0.020 A 
ATOM      8  C   UNK d   0      10.073 -16.438  -3.457  0.00  0.00    -0.011 A 
ATOM      9  C   UNK d   0       9.410 -16.968  -4.638  0.00  0.00     0.067 A 
ATOM     10  C   UNK d   0       8.908 -18.214  -5.043  0.00  0.00     0.062 C 
ATOM     11  N   UNK d   0       9.262 -15.945  -5.506  0.00  0.00    -0.248 NA
ATOM     12  C   UNK d   0       8.045 -18.471  -6.114  0.00  0.00     0.041 A 
ATOM     13  N   UNK d   0       8.026 -17.992  -7.373  0.00  0.00    -0.355 N 
ATOM     14  C   UNK d   0       6.948 -19.328  -5.913  0.00  0.00    -0.022 A 
ATOM     15  C   UNK d   0       6.941 -18.516  -7.972  0.00  0.00     0.042 A 
ATOM     16  H   UNK d   0       8.776 -17.312  -7.834  0.00  0.00     0.166 HD
ATOM     17  C   UNK d   0       6.451 -18.347  -9.283  0.00  0.00     0.062 C 
ATOM     18  C   UNK d   0       6.239 -19.358  -7.089  0.00  0.00    -0.013 A 
ATOM     19  C   UNK d   0       6.320 -17.194 -10.013  0.00  0.00     0.067 A 
ATOM     20  N   UNK d   0       6.904 -16.098  -9.522  0.00  0.00    -0.248 NA
ATOM     21  C   UNK d   0       5.662 -16.810 -11.251  0.00  0.00    -0.011 A 
ATOM     22  C   UNK d   0       6.675 -15.025 -10.349  0.00  0.00     0.066 A 
ATOM     23  C   UNK d   0       7.260 -13.824  -9.976  0.00  0.00     0.062 C 
ATOM     24  C   UNK d   0       5.871 -15.539 -11.440  0.00  0.00    -0.020 A 
ATOM     25  C   UNK d   0       8.134 -13.589  -8.903  0.00  0.00     0.041 A 
ATOM     26  N   UNK d   0       8.145 -14.054  -7.648  0.00  0.00    -0.355 N 
ATOM     27  C   UNK d   0       9.238 -12.733  -9.107  0.00  0.00    -0.022 A 
ATOM     28  C   UNK d   0       9.222 -13.526  -7.045  0.00  0.00     0.042 A 
ATOM     29  H   UNK d   0       7.384 -14.729  -7.183  0.00  0.00     0.166 HD
ATOM     30  C   UNK d   0       9.716 -13.678  -5.740  0.00  0.00     0.062 C 
ATOM     31  C   UNK d   0       9.932 -12.688  -7.937  0.00  0.00    -0.013 A 
ATOM     32  C   UNK d   0       9.768 -14.831  -4.974  0.00  0.00     0.066 A 
BRANCH   8  33
ATOM     33  C   UNK d   0      10.439 -17.221  -2.262  0.00  0.00     0.151 C 
BRANCH  33  34
ATOM     34  C   UNK d   0      11.891 -17.449  -2.151  0.00  0.00     0.143 C 
ATOM     35  O   UNK d   0      12.481 -17.278  -1.075  0.00  0.00    -0.650 OA
BRANCH  34  36
ATOM     36  O   UNK d   0      12.598 -17.854  -3.259  0.00  0.00    -0.776 OA
ATOM     37  H   UNK d   0      12.322 -17.560  -4.206  0.00  0.00     0.167 HD
ENDBRANCH  34  36
ENDBRANCH  33  34
ENDBRANCH   8  33
BRANCH  31  38
ATOM     38  C   UNK d   0      11.200 -11.907  -7.682  0.00  0.00     0.151 C 
BRANCH  38  39
ATOM     39  C   UNK d   0      10.948 -10.578  -7.169  0.00  0.00     0.143 C 
ATOM     40  O   UNK d   0      10.616  -9.632  -7.905  0.00  0.00    -0.650 OA
BRANCH  39  41
ATOM     41  O   UNK d   0      11.077 -10.334  -5.802  0.00  0.00    -0.776 OA
ATOM     42  H   UNK d   0      10.526  -9.560  -5.417  0.00  0.00     0.167 HD
ENDBRANCH  39  41
ENDBRANCH  38  39
ENDBRANCH  31  38
BRANCH  27  43
ATOM     43  C   UNK d   0       9.646 -11.973 -10.345  0.00  0.00     0.052 C 
BRANCH  43  44
ATOM     44  C   UNK d   0      10.675 -12.683 -11.162  0.00  0.00     0.115 C 
BRANCH  44  45
ATOM     45  C   UNK d   0      11.924 -11.885 -11.059  0.00  0.00     0.139 C 
ATOM     46  O   UNK d   0      11.826 -10.666 -10.771  0.00  0.00    -0.650 OA
BRANCH  45  47
ATOM     47  O   UNK d   0      13.176 -12.425 -11.260  0.00  0.00    -0.776 OA
ATOM     48  H   UNK d   0      14.021 -12.076 -10.780  0.00  0.00     0.167 HD
ENDBRANCH  45  47
ENDBRANCH  44  45
ENDBRANCH  43  44
ENDBRANCH  27  43
BRANCH  24  49
ATOM     49  C   UNK d   0       5.415 -14.746 -12.594  0.00  0.00     0.052 C 
BRANCH  49  50
ATOM     50  C   UNK d   0       6.587 -14.346 -13.452  0.00  0.00     0.115 C 
BRANCH  50  51
ATOM     51  C   UNK d   0       6.793 -15.091 -14.687  0.00  0.00     0.139 C 
ATOM     52  O   UNK d   0       6.827 -14.539 -15.812  0.00  0.00    -0.650 OA
BRANCH  51  53
ATOM     53  O   UNK d   0       6.957 -16.466 -14.639  0.00  0.00    -0.776 OA
ATOM     54  H   UNK d   0       7.877 -16.841 -14.793  0.00  0.00     0.167 HD
ENDBRANCH  51  53
ENDBRANCH  50  51
ENDBRANCH  49  50
ENDBRANCH  24  49
BRANCH  21  55
ATOM     55  C   UNK d   0       4.898 -17.755 -12.119  0.00  0.00     0.151 C 
BRANCH  55  56
ATOM     56  C   UNK d   0       3.487 -17.853 -11.717  0.00  0.00     0.143 C 
ATOM     57  O   UNK d   0       2.658 -18.553 -12.331  0.00  0.00    -0.650 OA
BRANCH  56  58
ATOM     58  O   UNK d   0       3.077 -17.126 -10.601  0.00  0.00    -0.776 OA
ATOM     59  H   UNK d   0       2.171 -16.636 -10.707  0.00  0.00     0.167 HD
ENDBRANCH  56  58
ENDBRANCH  55  56
ENDBRANCH  21  55
BRANCH  18  60
ATOM     60  C   UNK d   0       4.975 -20.151  -7.316  0.00  0.00     0.151 C 
BRANCH  60  61
ATOM     61  C   UNK d   0       3.871 -19.184  -7.224  0.00  0.00     0.143 C 
ATOM     62  O   UNK d   0       3.592 -18.296  -8.031  0.00  0.00    -0.650 OA
BRANCH  61  63
ATOM     63  O   UNK d   0       3.054 -19.310  -6.074  0.00  0.00    -0.776 OA
ATOM     64  H   UNK d   0       3.037 -20.161  -5.541  0.00  0.00     0.167 HD
ENDBRANCH  61  63
ENDBRANCH  60  61
ENDBRANCH  18  60
BRANCH  14  65
ATOM     65  C   UNK d   0       6.576 -20.187  -4.738  0.00  0.00     0.052 C 
BRANCH  65  66
ATOM     66  C   UNK d   0       5.706 -19.486  -3.757  0.00  0.00     0.115 C 
BRANCH  66  67
ATOM     67  C   UNK d   0       4.624 -20.194  -3.132  0.00  0.00     0.139 C 
ATOM     68  O   UNK d   0       3.428 -19.751  -3.292  0.00  0.00    -0.650 OA
BRANCH  67  69
ATOM     69  O   UNK d   0       4.698 -21.341  -2.343  0.00  0.00    -0.776 OA
ATOM     70  H   UNK d   0       4.439 -21.221  -1.353  0.00  0.00     0.167 HD
ENDBRANCH  67  69
ENDBRANCH  66  67
ENDBRANCH  65  66
ENDBRANCH  14  65
ENDBRANCH   6   7
ENDBRANCH   5   6
ENDBRANCH   2   5
TORSDOF 28
ENDMDL
MODEL 15
REMARK VINA RESULT:      -8.4      2.647      8.097
REMARK  28 active torsions:
REMARK  status: ('A' for Active; 'I' for Inactive)
REMARK    1  A    between atoms: C_2  and  O_3 
REMARK    2  A    between atoms: C_2  and  C_4 
REMARK    3  A    between atoms: C_4  and  C_5 
REMARK    4  A    between atoms: C_5  and  C_6 
REMARK    5  A    between atoms: C_7  and  C_8 
REMARK    6  A    between atoms: C_8  and  C_9 
REMARK    7  A    between atoms: C_9  and  O_11 
REMARK    8  A    between atoms: C_28  and  C_29 
REMARK    9  A    between atoms: C_29  and  C_30 
REMARK   10  A    between atoms: C_30  and  O_32 
REMARK   11  A    between atoms: C_33  and  C_34 
REMARK   12  A    between atoms: C_34  and  C_35 
REMARK   13  A    between atoms: C_35  and  C_36 
REMARK   14  A    between atoms: C_36  and  O_38 
REMARK   15  A    between atoms: C_39  and  C_40 
REMARK   16  A    between atoms: C_40  and  C_41 
REMARK   17  A    between atoms: C_41  and  C_42 
REMARK   18  A    between atoms: C_42  and  O_44 
REMARK   19  A    between atoms: C_45  and  C_46 
REMARK   20  A    between atoms: C_46  and  C_47 
REMARK   21  A    between atoms: C_47  and  O_49 
REMARK   22  A    between atoms: C_50  and  C_51 
REMARK   23  A    between atoms: C_51  and  C_52 
REMARK   24  A    between atoms: C_52  and  O_54 
REMARK   25  A    between atoms: C_55  and  C_56 
REMARK   26  A    between atoms: C_56  and  C_57 
REMARK   27  A    between atoms: C_57  and  C_58 
REMARK   28  A    between atoms: C_58  and  O_60 
ROOT
ATOM      1  O   UNK d   0       5.269 -21.688  -2.429  0.00  0.00    -0.650 OA
ATOM      2  C   UNK d   0       4.978 -20.502  -2.701  0.00  0.00     0.139 C 
ENDROOT
BRANCH   2   3
ATOM      3  O   UNK d   0       3.795 -20.229  -3.344  0.00  0.00    -0.776 OA
ATOM      4  H   UNK d   0       2.970 -19.923  -2.823  0.00  0.00     0.167 HD
ENDBRANCH   2   3
BRANCH   2   5
ATOM      5  C   UNK d   0       5.910 -19.399  -2.331  0.00  0.00     0.115 C 
BRANCH   5   6
ATOM      6  C   UNK d   0       7.285 -19.679  -2.873  0.00  0.00     0.052 C 
BRANCH   6   7
ATOM      7  C   UNK d   0       7.639 -18.795  -4.045  0.00  0.00    -0.020 A 
ATOM      8  C   UNK d   0       7.391 -19.012  -5.312  0.00  0.00    -0.011 A 
ATOM      9  C   UNK d   0       7.926 -17.892  -6.067  0.00  0.00     0.067 A 
ATOM     10  C   UNK d   0       7.972 -17.511  -7.418  0.00  0.00     0.062 C 
ATOM     11  N   UNK d   0       8.488 -17.043  -5.182  0.00  0.00    -0.248 NA
ATOM     12  C   UNK d   0       8.290 -16.249  -7.932  0.00  0.00     0.041 A 
ATOM     13  N   UNK d   0       9.254 -15.372  -7.594  0.00  0.00    -0.355 N 
ATOM     14  C   UNK d   0       7.480 -15.703  -8.944  0.00  0.00    -0.022 A 
ATOM     15  C   UNK d   0       9.072 -14.280  -8.361  0.00  0.00     0.042 A 
ATOM     16  H   UNK d   0      10.060 -15.529  -6.843  0.00  0.00     0.166 HD
ATOM     17  C   UNK d   0       9.796 -13.072  -8.417  0.00  0.00     0.062 C 
ATOM     18  C   UNK d   0       7.969 -14.450  -9.219  0.00  0.00    -0.013 A 
ATOM     19  C   UNK d   0      10.256 -12.294  -7.385  0.00  0.00     0.067 A 
ATOM     20  N   UNK d   0      10.198 -12.819  -6.159  0.00  0.00    -0.248 NA
ATOM     21  C   UNK d   0      10.813 -10.958  -7.252  0.00  0.00    -0.011 A 
ATOM     22  C   UNK d   0      10.676 -11.924  -5.233  0.00  0.00     0.066 A 
ATOM     23  C   UNK d   0      10.708 -12.357  -3.916  0.00  0.00     0.062 C 
ATOM     24  C   UNK d   0      11.053 -10.746  -5.990  0.00  0.00    -0.020 A 
ATOM     25  C   UNK d   0      10.396 -13.633  -3.422  0.00  0.00     0.041 A 
ATOM     26  N   UNK d   0       9.429 -14.499  -3.747  0.00  0.00    -0.355 N 
ATOM     27  C   UNK d   0      11.213 -14.182  -2.409  0.00  0.00    -0.022 A 
ATOM     28  C   UNK d   0       9.603 -15.585  -2.978  0.00  0.00     0.042 A 
ATOM     29  H   UNK d   0       8.614 -14.335  -4.494  0.00  0.00     0.166 HD
ATOM     30  C   UNK d   0       8.886 -16.789  -2.905  0.00  0.00     0.062 C 
ATOM     31  C   UNK d   0      10.718 -15.418  -2.123  0.00  0.00    -0.013 A 
ATOM     32  C   UNK d   0       8.349 -17.529  -3.948  0.00  0.00     0.066 A 
BRANCH   8  33
ATOM     33  C   UNK d   0       6.699 -20.178  -5.891  0.00  0.00     0.151 C 
BRANCH  33  34
ATOM     34  C   UNK d   0       5.358 -19.847  -6.407  0.00  0.00     0.143 C 
ATOM     35  O   UNK d   0       4.875 -20.466  -7.366  0.00  0.00    -0.650 OA
BRANCH  34  36
ATOM     36  O   UNK d   0       4.637 -18.836  -5.815  0.00  0.00    -0.776 OA
ATOM     37  H   UNK d   0       4.926 -18.431  -4.914  0.00  0.00     0.167 HD
ENDBRANCH  34  36
ENDBRANCH  33  34
ENDBRANCH   8  33
BRANCH  31  38
ATOM     38  C   UNK d   0      11.277 -16.388  -1.109  0.00  0.00     0.151 C 
BRANCH  38  39
ATOM     39  C   UNK d   0      12.612 -16.839  -1.439  0.00  0.00     0.143 C 
ATOM     40  O   UNK d   0      13.568 -16.720  -0.653  0.00  0.00    -0.650 OA
BRANCH  39  41
ATOM     41  O   UNK d   0      12.849 -17.431  -2.679  0.00  0.00    -0.776 OA
ATOM     42  H   UNK d   0      12.363 -17.025  -3.485  0.00  0.00     0.167 HD
ENDBRANCH  39  41
ENDBRANCH  38  39
ENDBRANCH  31  38
BRANCH  27  43
ATOM     43  C   UNK d   0      12.415 -13.588  -1.720  0.00  0.00     0.052 C 
BRANCH  43  44
ATOM     44  C   UNK d   0      13.657 -13.638  -2.550  0.00  0.00     0.115 C 
BRANCH  44  45
ATOM     45  C   UNK d   0      14.113 -12.234  -2.716  0.00  0.00     0.139 C 
ATOM     46  O   UNK d   0      14.852 -11.964  -3.695  0.00  0.00    -0.650 OA
BRANCH  45  47
ATOM     47  O   UNK d   0      13.755 -11.224  -1.850  0.00  0.00    -0.776 OA
ATOM     48  H   UNK d   0      13.451 -11.401  -0.878  0.00  0.00     0.167 HD
ENDBRANCH  45  47
ENDBRANCH  44  45
ENDBRANCH  43  44
ENDBRANCH  27  43
BRANCH  24  49
ATOM     49  C   UNK d   0      11.657  -9.533  -5.413  0.00  0.00     0.052 C 
BRANCH  49  50
ATOM     50  C   UNK d   0      10.694  -8.376  -5.499  0.00  0.00     0.115 C 
BRANCH  50  51
ATOM     51  C   UNK d   0      10.388  -7.673  -4.261  0.00  0.00     0.139 C 
ATOM     52  O   UNK d   0      10.377  -8.242  -3.144  0.00  0.00    -0.650 OA
BRANCH  51  53
ATOM     53  O   UNK d   0      10.091  -6.319  -4.296  0.00  0.00    -0.776 OA
ATOM     54  H   UNK d   0       9.983  -5.833  -3.423  0.00  0.00     0.167 HD
ENDBRANCH  51  53
ENDBRANCH  50  51
ENDBRANCH  49  50
ENDBRANCH  24  49
BRANCH  21  55
ATOM     55  C   UNK d   0      11.052 -10.035  -8.401  0.00  0.00     0.151 C 
BRANCH  55  56
ATOM     56  C   UNK d   0      11.108 -10.753  -9.683  0.00  0.00     0.143 C 
ATOM     57  O   UNK d   0      12.090 -11.436 -10.032  0.00  0.00    -0.650 OA
BRANCH  56  58
ATOM     58  O   UNK d   0      10.005 -10.654 -10.531  0.00  0.00    -0.776 OA
ATOM     59  H   UNK d   0       9.852  -9.714 -10.939  0.00  0.00     0.167 HD
ENDBRANCH  56  58
ENDBRANCH  55  56
ENDBRANCH  21  55
BRANCH  18  60
ATOM     60  C   UNK d   0       7.392 -13.502 -10.241  0.00  0.00     0.151 C 
BRANCH  60  61
ATOM     61  C   UNK d   0       8.139 -13.745 -11.485  0.00  0.00     0.143 C 
ATOM     62  O   UNK d   0       9.302 -13.420 -11.727  0.00  0.00    -0.650 OA
BRANCH  61  63
ATOM     63  O   UNK d   0       7.421 -14.429 -12.495  0.00  0.00    -0.776 OA
ATOM     64  H   UNK d   0       6.650 -15.031 -12.266  0.00  0.00     0.167 HD
ENDBRANCH  61  63
ENDBRANCH  60  61
ENDBRANCH  18  60
BRANCH  14  65
ATOM     65  C   UNK d   0       6.352 -16.307  -9.731  0.00  0.00     0.052 C 
BRANCH  65  66
ATOM     66  C   UNK d   0       5.261 -16.837  -8.870  0.00  0.00     0.115 C 
BRANCH  66  67
ATOM     67  C   UNK d   0       4.159 -17.536  -9.468  0.00  0.00     0.139 C 
ATOM     68  O   UNK d   0       3.198 -16.848  -9.976  0.00  0.00    -0.650 OA
BRANCH  67  69
ATOM     69  O   UNK d   0       3.981 -18.915  -9.576  0.00  0.00    -0.776 OA
ATOM     70  H   UNK d   0       3.231 -19.317  -8.995  0.00  0.00     0.167 HD
ENDBRANCH  67  69
ENDBRANCH  66  67
ENDBRANCH  65  66
ENDBRANCH  14  65
ENDBRANCH   6   7
ENDBRANCH   5   6
ENDBRANCH   2   5
TORSDOF 28
ENDMDL
MODEL 16
REMARK VINA RESULT:      -8.0      4.278     10.553
REMARK  28 active torsions:
REMARK  status: ('A' for Active; 'I' for Inactive)
REMARK    1  A    between atoms: C_2  and  O_3 
REMARK    2  A    between atoms: C_2  and  C_4 
REMARK    3  A    between atoms: C_4  and  C_5 
REMARK    4  A    between atoms: C_5  and  C_6 
REMARK    5  A    between atoms: C_7  and  C_8 
REMARK    6  A    between atoms: C_8  and  C_9 
REMARK    7  A    between atoms: C_9  and  O_11 
REMARK    8  A    between atoms: C_28  and  C_29 
REMARK    9  A    between atoms: C_29  and  C_30 
REMARK   10  A    between atoms: C_30  and  O_32 
REMARK   11  A    between atoms: C_33  and  C_34 
REMARK   12  A    between atoms: C_34  and  C_35 
REMARK   13  A    between atoms: C_35  and  C_36 
REMARK   14  A    between atoms: C_36  and  O_38 
REMARK   15  A    between atoms: C_39  and  C_40 
REMARK   16  A    between atoms: C_40  and  C_41 
REMARK   17  A    between atoms: C_41  and  C_42 
REMARK   18  A    between atoms: C_42  and  O_44 
REMARK   19  A    between atoms: C_45  and  C_46 
REMARK   20  A    between atoms: C_46  and  C_47 
REMARK   21  A    between atoms: C_47  and  O_49 
REMARK   22  A    between atoms: C_50  and  C_51 
REMARK   23  A    between atoms: C_51  and  C_52 
REMARK   24  A    between atoms: C_52  and  O_54 
REMARK   25  A    between atoms: C_55  and  C_56 
REMARK   26  A    between atoms: C_56  and  C_57 
REMARK   27  A    between atoms: C_57  and  C_58 
REMARK   28  A    between atoms: C_58  and  O_60 
ROOT
ATOM      1  O   UNK d   0       9.427 -17.851  -0.931  0.00  0.00    -0.650 OA
ATOM      2  C   UNK d   0       8.266 -18.299  -1.060  0.00  0.00     0.139 C 
ENDROOT
BRANCH   2   3
ATOM      3  O   UNK d   0       7.382 -18.189  -0.014  0.00  0.00    -0.776 OA
ATOM      4  H   UNK d   0       7.501 -17.471   0.704  0.00  0.00     0.167 HD
ENDBRANCH   2   3
BRANCH   2   5
ATOM      5  C   UNK d   0       7.851 -18.946  -2.336  0.00  0.00     0.115 C 
BRANCH   5   6
ATOM      6  C   UNK d   0       8.979 -18.901  -3.331  0.00  0.00     0.052 C 
BRANCH   6   7
ATOM      7  C   UNK d   0       8.784 -17.837  -4.384  0.00  0.00    -0.020 A 
ATOM      8  C   UNK d   0       9.265 -16.620  -4.388  0.00  0.00    -0.011 A 
ATOM      9  C   UNK d   0       8.803 -15.963  -5.600  0.00  0.00     0.067 A 
ATOM     10  C   UNK d   0       8.973 -14.704  -6.197  0.00  0.00     0.062 C 
ATOM     11  N   UNK d   0       8.041 -16.852  -6.271  0.00  0.00    -0.248 NA
ATOM     12  C   UNK d   0       8.672 -14.344  -7.515  0.00  0.00     0.041 A 
ATOM     13  N   UNK d   0       7.611 -14.631  -8.292  0.00  0.00    -0.355 N 
ATOM     14  C   UNK d   0       9.613 -13.597  -8.248  0.00  0.00    -0.022 A 
ATOM     15  C   UNK d   0       7.857 -14.092  -9.501  0.00  0.00     0.042 A 
ATOM     16  H   UNK d   0       6.697 -15.186  -7.986  0.00  0.00     0.166 HD
ATOM     17  C   UNK d   0       7.080 -14.093 -10.677  0.00  0.00     0.062 C 
ATOM     18  C   UNK d   0       9.103 -13.436  -9.512  0.00  0.00    -0.013 A 
ATOM     19  C   UNK d   0       6.398 -15.131 -11.258  0.00  0.00     0.067 A 
ATOM     20  N   UNK d   0       6.270 -16.250 -10.539  0.00  0.00    -0.248 NA
ATOM     21  C   UNK d   0       5.743 -15.366 -12.535  0.00  0.00    -0.011 A 
ATOM     22  C   UNK d   0       5.581 -17.199 -11.253  0.00  0.00     0.066 A 
ATOM     23  C   UNK d   0       5.344 -18.404 -10.608  0.00  0.00     0.062 C 
ATOM     24  C   UNK d   0       5.271 -16.580 -12.527  0.00  0.00    -0.020 A 
ATOM     25  C   UNK d   0       5.642 -18.741  -9.279  0.00  0.00     0.041 A 
ATOM     26  N   UNK d   0       6.704 -18.469  -8.511  0.00  0.00    -0.355 N 
ATOM     27  C   UNK d   0       4.696 -19.487  -8.542  0.00  0.00    -0.022 A 
ATOM     28  C   UNK d   0       6.465 -19.012  -7.307  0.00  0.00     0.042 A 
ATOM     29  H   UNK d   0       7.627 -17.919  -8.823  0.00  0.00     0.166 HD
ATOM     30  C   UNK d   0       7.232 -19.027  -6.132  0.00  0.00     0.062 C 
ATOM     31  C   UNK d   0       5.208 -19.662  -7.294  0.00  0.00    -0.013 A 
ATOM     32  C   UNK d   0       7.990 -17.999  -5.593  0.00  0.00     0.066 A 
BRANCH   8  33
ATOM     33  C   UNK d   0      10.120 -16.003  -3.358  0.00  0.00     0.151 C 
BRANCH  33  34
ATOM     34  C   UNK d   0      11.557 -16.121  -3.663  0.00  0.00     0.143 C 
ATOM     35  O   UNK d   0      12.131 -17.218  -3.611  0.00  0.00    -0.650 OA
BRANCH  34  36
ATOM     36  O   UNK d   0      12.269 -14.995  -4.008  0.00  0.00    -0.776 OA
ATOM     37  H   UNK d   0      12.357 -14.698  -4.989  0.00  0.00     0.167 HD
ENDBRANCH  34  36
ENDBRANCH  33  34
ENDBRANCH   8  33
BRANCH  31  38
ATOM     38  C   UNK d   0       4.541 -20.391  -6.151  0.00  0.00     0.151 C 
BRANCH  38  39
ATOM     39  C   UNK d   0       3.583 -19.569  -5.443  0.00  0.00     0.143 C 
ATOM     40  O   UNK d   0       3.825 -18.392  -5.123  0.00  0.00    -0.650 OA
BRANCH  39  41
ATOM     41  O   UNK d   0       2.340 -20.102  -5.103  0.00  0.00    -0.776 OA
ATOM     42  H   UNK d   0       1.913 -20.744  -5.777  0.00  0.00     0.167 HD
ENDBRANCH  39  41
ENDBRANCH  38  39
ENDBRANCH  31  38
BRANCH  27  43
ATOM     43  C   UNK d   0       3.356 -20.027  -8.975  0.00  0.00     0.052 C 
BRANCH  43  44
ATOM     44  C   UNK d   0       2.203 -19.218  -8.473  0.00  0.00     0.115 C 
BRANCH  44  45
ATOM     45  C   UNK d   0       1.766 -18.357  -9.603  0.00  0.00     0.139 C 
ATOM     46  O   UNK d   0       2.184 -17.173  -9.641  0.00  0.00    -0.650 OA
BRANCH  45  47
ATOM     47  O   UNK d   0       0.932 -18.805 -10.604  0.00  0.00    -0.776 OA
ATOM     48  H   UNK d   0       1.254 -18.963 -11.573  0.00  0.00     0.167 HD
ENDBRANCH  45  47
ENDBRANCH  44  45
ENDBRANCH  43  44
ENDBRANCH  27  43
BRANCH  24  49
ATOM     49  C   UNK d   0       4.500 -17.218 -13.607  0.00  0.00     0.052 C 
BRANCH  49  50
ATOM     50  C   UNK d   0       3.218 -16.465 -13.852  0.00  0.00     0.115 C 
BRANCH  50  51
ATOM     51  C   UNK d   0       2.029 -16.932 -13.152  0.00  0.00     0.139 C 
ATOM     52  O   UNK d   0       1.511 -18.052 -13.370  0.00  0.00    -0.650 OA
BRANCH  51  53
ATOM     53  O   UNK d   0       1.428 -16.118 -12.203  0.00  0.00    -0.776 OA
ATOM     54  H   UNK d   0       1.593 -15.128 -12.252  0.00  0.00     0.167 HD
ENDBRANCH  51  53
ENDBRANCH  50  51
ENDBRANCH  49  50
ENDBRANCH  24  49
BRANCH  21  55
ATOM     55  C   UNK d   0       5.653 -14.352 -13.626  0.00  0.00     0.151 C 
BRANCH  55  56
ATOM     56  C   UNK d   0       6.648 -14.591 -14.683  0.00  0.00     0.143 C 
ATOM     57  O   UNK d   0       6.385 -14.474 -15.897  0.00  0.00    -0.650 OA
BRANCH  56  58
ATOM     58  O   UNK d   0       7.934 -14.962 -14.293  0.00  0.00    -0.776 OA
ATOM     59  H   UNK d   0       8.178 -15.952 -14.480  0.00  0.00     0.167 HD
ENDBRANCH  56  58
ENDBRANCH  55  56
ENDBRANCH  21  55
BRANCH  18  60
ATOM     60  C   UNK d   0       9.791 -12.699 -10.634  0.00  0.00     0.151 C 
BRANCH  60  61
ATOM     61  C   UNK d   0       9.861 -11.292 -10.211  0.00  0.00     0.143 C 
ATOM     62  O   UNK d   0      10.837 -10.545 -10.276  0.00  0.00    -0.650 OA
BRANCH  61  63
ATOM     63  O   UNK d   0       8.661 -10.765  -9.674  0.00  0.00    -0.776 OA
ATOM     64  H   UNK d   0       8.392  -9.813  -9.844  0.00  0.00     0.167 HD
ENDBRANCH  61  63
ENDBRANCH  60  61
ENDBRANCH  18  60
BRANCH  14  65
ATOM     65  C   UNK d   0      10.898 -12.947  -7.819  0.00  0.00     0.052 C 
BRANCH  65  66
ATOM     66  C   UNK d   0      10.688 -11.778  -6.924  0.00  0.00     0.115 C 
BRANCH  66  67
ATOM     67  C   UNK d   0      10.935 -11.906  -5.516  0.00  0.00     0.139 C 
ATOM     68  O   UNK d   0      12.083 -12.338  -5.131  0.00  0.00    -0.650 OA
BRANCH  67  69
ATOM     69  O   UNK d   0      10.063 -11.614  -4.467  0.00  0.00    -0.776 OA
ATOM     70  H   UNK d   0      10.150 -10.671  -4.062  0.00  0.00     0.167 HD
ENDBRANCH  67  69
ENDBRANCH  66  67
ENDBRANCH  65  66
ENDBRANCH  14  65
ENDBRANCH   6   7
ENDBRANCH   5   6
ENDBRANCH   2   5
TORSDOF 28
ENDMDL
MODEL 17
REMARK VINA RESULT:      -7.7      3.961     10.426
REMARK  28 active torsions:
REMARK  status: ('A' for Active; 'I' for Inactive)
REMARK    1  A    between atoms: C_2  and  O_3 
REMARK    2  A    between atoms: C_2  and  C_4 
REMARK    3  A    between atoms: C_4  and  C_5 
REMARK    4  A    between atoms: C_5  and  C_6 
REMARK    5  A    between atoms: C_7  and  C_8 
REMARK    6  A    between atoms: C_8  and  C_9 
REMARK    7  A    between atoms: C_9  and  O_11 
REMARK    8  A    between atoms: C_28  and  C_29 
REMARK    9  A    between atoms: C_29  and  C_30 
REMARK   10  A    between atoms: C_30  and  O_32 
REMARK   11  A    between atoms: C_33  and  C_34 
REMARK   12  A    between atoms: C_34  and  C_35 
REMARK   13  A    between atoms: C_35  and  C_36 
REMARK   14  A    between atoms: C_36  and  O_38 
REMARK   15  A    between atoms: C_39  and  C_40 
REMARK   16  A    between atoms: C_40  and  C_41 
REMARK   17  A    between atoms: C_41  and  C_42 
REMARK   18  A    between atoms: C_42  and  O_44 
REMARK   19  A    between atoms: C_45  and  C_46 
REMARK   20  A    between atoms: C_46  and  C_47 
REMARK   21  A    between atoms: C_47  and  O_49 
REMARK   22  A    between atoms: C_50  and  C_51 
REMARK   23  A    between atoms: C_51  and  C_52 
REMARK   24  A    between atoms: C_52  and  O_54 
REMARK   25  A    between atoms: C_55  and  C_56 
REMARK   26  A    between atoms: C_56  and  C_57 
REMARK   27  A    between atoms: C_57  and  C_58 
REMARK   28  A    between atoms: C_58  and  O_60 
ROOT
ATOM      1  O   UNK d   0       9.249 -17.238  -0.928  0.00  0.00    -0.650 OA
ATOM      2  C   UNK d   0       8.447 -18.160  -1.195  0.00  0.00     0.139 C 
ENDROOT
BRANCH   2   3
ATOM      3  O   UNK d   0       7.466 -18.484  -0.289  0.00  0.00    -0.776 OA
ATOM      4  H   UNK d   0       6.751 -19.179  -0.511  0.00  0.00     0.167 HD
ENDBRANCH   2   3
BRANCH   2   5
ATOM      5  C   UNK d   0       8.560 -18.900  -2.484  0.00  0.00     0.115 C 
BRANCH   5   6
ATOM      6  C   UNK d   0       9.747 -18.403  -3.264  0.00  0.00     0.052 C 
BRANCH   6   7
ATOM      7  C   UNK d   0       9.371 -17.373  -4.302  0.00  0.00    -0.020 A 
ATOM      8  C   UNK d   0       9.712 -16.110  -4.334  0.00  0.00    -0.011 A 
ATOM      9  C   UNK d   0       9.107 -15.516  -5.514  0.00  0.00     0.067 A 
ATOM     10  C   UNK d   0       9.099 -14.249  -6.118  0.00  0.00     0.062 C 
ATOM     11  N   UNK d   0       8.411 -16.488  -6.140  0.00  0.00    -0.248 NA
ATOM     12  C   UNK d   0       8.682 -13.932  -7.416  0.00  0.00     0.041 A 
ATOM     13  N   UNK d   0       7.615 -14.340  -8.128  0.00  0.00    -0.355 N 
ATOM     14  C   UNK d   0       9.487 -13.089  -8.203  0.00  0.00    -0.022 A 
ATOM     15  C   UNK d   0       7.726 -13.783  -9.349  0.00  0.00     0.042 A 
ATOM     16  H   UNK d   0       6.789 -14.992  -7.769  0.00  0.00     0.166 HD
ATOM     17  C   UNK d   0       6.886 -13.878 -10.476  0.00  0.00     0.062 C 
ATOM     18  C   UNK d   0       8.888 -12.992  -9.434  0.00  0.00    -0.013 A 
ATOM     19  C   UNK d   0       6.290 -14.989 -11.017  0.00  0.00     0.067 A 
ATOM     20  N   UNK d   0       6.332 -16.110 -10.293  0.00  0.00    -0.248 NA
ATOM     21  C   UNK d   0       5.591 -15.302 -12.252  0.00  0.00    -0.011 A 
ATOM     22  C   UNK d   0       5.712 -17.135 -10.966  0.00  0.00     0.066 A 
ATOM     23  C   UNK d   0       5.650 -18.355 -10.309  0.00  0.00     0.062 C 
ATOM     24  C   UNK d   0       5.259 -16.561 -12.218  0.00  0.00    -0.020 A 
ATOM     25  C   UNK d   0       6.064 -18.649  -9.000  0.00  0.00     0.041 A 
ATOM     26  N   UNK d   0       7.132 -18.256  -8.297  0.00  0.00    -0.355 N 
ATOM     27  C   UNK d   0       5.252 -19.492  -8.210  0.00  0.00    -0.022 A 
ATOM     28  C   UNK d   0       7.028 -18.817  -7.082  0.00  0.00     0.042 A 
ATOM     29  H   UNK d   0       7.967 -17.609  -8.663  0.00  0.00     0.166 HD
ATOM     30  C   UNK d   0       7.861 -18.739  -5.955  0.00  0.00     0.062 C 
ATOM     31  C   UNK d   0       5.855 -19.603  -6.994  0.00  0.00    -0.013 A 
ATOM     32  C   UNK d   0       8.530 -17.630  -5.461  0.00  0.00     0.066 A 
BRANCH   8  33
ATOM     33  C   UNK d   0      10.552 -15.396  -3.355  0.00  0.00     0.151 C 
BRANCH  33  34
ATOM     34  C   UNK d   0      11.953 -15.263  -3.795  0.00  0.00     0.143 C 
ATOM     35  O   UNK d   0      12.789 -16.140  -3.531  0.00  0.00    -0.650 OA
BRANCH  34  36
ATOM     36  O   UNK d   0      12.335 -14.150  -4.507  0.00  0.00    -0.776 OA
ATOM     37  H   UNK d   0      12.716 -14.230  -5.460  0.00  0.00     0.167 HD
ENDBRANCH  34  36
ENDBRANCH  33  34
ENDBRANCH   8  33
BRANCH  31  38
ATOM     38  C   UNK d   0       5.343 -20.396  -5.815  0.00  0.00     0.151 C 
BRANCH  38  39
ATOM     39  C   UNK d   0       4.454 -19.630  -4.967  0.00  0.00     0.143 C 
ATOM     40  O   UNK d   0       4.137 -18.456  -5.223  0.00  0.00    -0.650 OA
BRANCH  39  41
ATOM     41  O   UNK d   0       3.926 -20.219  -3.818  0.00  0.00    -0.776 OA
ATOM     42  H   UNK d   0       3.074 -19.798  -3.434  0.00  0.00     0.167 HD
ENDBRANCH  39  41
ENDBRANCH  38  39
ENDBRANCH  31  38
BRANCH  27  43
ATOM     43  C   UNK d   0       3.958 -20.181  -8.562  0.00  0.00     0.052 C 
BRANCH  43  44
ATOM     44  C   UNK d   0       2.747 -19.375  -8.219  0.00  0.00     0.115 C 
BRANCH  44  45
ATOM     45  C   UNK d   0       2.349 -18.659  -9.459  0.00  0.00     0.139 C 
ATOM     46  O   UNK d   0       2.253 -19.322 -10.520  0.00  0.00    -0.650 OA
BRANCH  45  47
ATOM     47  O   UNK d   0       2.079 -17.308  -9.487  0.00  0.00    -0.776 OA
ATOM     48  H   UNK d   0       2.814 -16.591  -9.606  0.00  0.00     0.167 HD
ENDBRANCH  45  47
ENDBRANCH  44  45
ENDBRANCH  43  44
ENDBRANCH  27  43
BRANCH  24  49
ATOM     49  C   UNK d   0       4.501 -17.288 -13.251  0.00  0.00     0.052 C 
BRANCH  49  50
ATOM     50  C   UNK d   0       5.301 -18.458 -13.762  0.00  0.00     0.115 C 
BRANCH  50  51
ATOM     51  C   UNK d   0       6.222 -18.205 -14.861  0.00  0.00     0.139 C 
ATOM     52  O   UNK d   0       6.439 -19.043 -15.768  0.00  0.00    -0.650 OA
BRANCH  51  53
ATOM     53  O   UNK d   0       6.898 -16.996 -14.925  0.00  0.00    -0.776 OA
ATOM     54  H   UNK d   0       6.936 -16.519 -15.809  0.00  0.00     0.167 HD
ENDBRANCH  51  53
ENDBRANCH  50  51
ENDBRANCH  49  50
ENDBRANCH  24  49
BRANCH  21  55
ATOM     55  C   UNK d   0       5.323 -14.311 -13.335  0.00  0.00     0.151 C 
BRANCH  55  56
ATOM     56  C   UNK d   0       4.025 -13.641 -13.161  0.00  0.00     0.143 C 
ATOM     57  O   UNK d   0       3.115 -14.107 -12.448  0.00  0.00    -0.650 OA
BRANCH  56  58
ATOM     58  O   UNK d   0       3.822 -12.435 -13.830  0.00  0.00    -0.776 OA
ATOM     59  H   UNK d   0       3.944 -12.481 -14.858  0.00  0.00     0.167 HD
ENDBRANCH  56  58
ENDBRANCH  55  56
ENDBRANCH  21  55
BRANCH  18  60
ATOM     60  C   UNK d   0       9.421 -12.189 -10.594  0.00  0.00     0.151 C 
BRANCH  60  61
ATOM     61  C   UNK d   0      10.212 -13.127 -11.405  0.00  0.00     0.143 C 
ATOM     62  O   UNK d   0       9.785 -14.055 -12.094  0.00  0.00    -0.650 OA
BRANCH  61  63
ATOM     63  O   UNK d   0      11.612 -12.919 -11.375  0.00  0.00    -0.776 OA
ATOM     64  H   UNK d   0      12.016 -12.199 -10.802  0.00  0.00     0.167 HD
ENDBRANCH  61  63
ENDBRANCH  60  61
ENDBRANCH  18  60
BRANCH  14  65
ATOM     65  C   UNK d   0      10.715 -12.297  -7.851  0.00  0.00     0.052 C 
BRANCH  65  66
ATOM     66  C   UNK d   0      10.575 -10.846  -8.147  0.00  0.00     0.115 C 
BRANCH  66  67
ATOM     67  C   UNK d   0      10.993  -9.877  -7.172  0.00  0.00     0.139 C 
ATOM     68  O   UNK d   0      11.729 -10.270  -6.194  0.00  0.00    -0.650 OA
BRANCH  67  69
ATOM     69  O   UNK d   0      10.696  -8.515  -7.141  0.00  0.00    -0.776 OA
ATOM     70  H   UNK d   0       9.694  -8.275  -7.130  0.00  0.00     0.167 HD
ENDBRANCH  67  69
ENDBRANCH  66  67
ENDBRANCH  65  66
ENDBRANCH  14  65
ENDBRANCH   6   7
ENDBRANCH   5   6
ENDBRANCH   2   5
TORSDOF 28
ENDMDL
MODEL 18
REMARK VINA RESULT:      -7.6     21.489     23.508
REMARK  28 active torsions:
REMARK  status: ('A' for Active; 'I' for Inactive)
REMARK    1  A    between atoms: C_2  and  O_3 
REMARK    2  A    between atoms: C_2  and  C_4 
REMARK    3  A    between atoms: C_4  and  C_5 
REMARK    4  A    between atoms: C_5  and  C_6 
REMARK    5  A    between atoms: C_7  and  C_8 
REMARK    6  A    between atoms: C_8  and  C_9 
REMARK    7  A    between atoms: C_9  and  O_11 
REMARK    8  A    between atoms: C_28  and  C_29 
REMARK    9  A    between atoms: C_29  and  C_30 
REMARK   10  A    between atoms: C_30  and  O_32 
REMARK   11  A    between atoms: C_33  and  C_34 
REMARK   12  A    between atoms: C_34  and  C_35 
REMARK   13  A    between atoms: C_35  and  C_36 
REMARK   14  A    between atoms: C_36  and  O_38 
REMARK   15  A    between atoms: C_39  and  C_40 
REMARK   16  A    between atoms: C_40  and  C_41 
REMARK   17  A    between atoms: C_41  and  C_42 
REMARK   18  A    between atoms: C_42  and  O_44 
REMARK   19  A    between atoms: C_45  and  C_46 
REMARK   20  A    between atoms: C_46  and  C_47 
REMARK   21  A    between atoms: C_47  and  O_49 
REMARK   22  A    between atoms: C_50  and  C_51 
REMARK   23  A    between atoms: C_51  and  C_52 
REMARK   24  A    between atoms: C_52  and  O_54 
REMARK   25  A    between atoms: C_55  and  C_56 
REMARK   26  A    between atoms: C_56  and  C_57 
REMARK   27  A    between atoms: C_57  and  C_58 
REMARK   28  A    between atoms: C_58  and  O_60 
ROOT
ATOM      1  O   UNK d   0     -14.796  -6.778  -6.536  0.00  0.00    -0.650 OA
ATOM      2  C   UNK d   0     -14.028  -6.637  -5.558  0.00  0.00     0.139 C 
ENDROOT
BRANCH   2   3
ATOM      3  O   UNK d   0     -12.673  -6.766  -5.741  0.00  0.00    -0.776 OA
ATOM      4  H   UNK d   0     -12.293  -7.433  -6.415  0.00  0.00     0.167 HD
ENDBRANCH   2   3
BRANCH   2   5
ATOM      5  C   UNK d   0     -14.584  -6.331  -4.209  0.00  0.00     0.115 C 
BRANCH   5   6
ATOM      6  C   UNK d   0     -14.521  -4.851  -3.946  0.00  0.00     0.052 C 
BRANCH   6   7
ATOM      7  C   UNK d   0     -13.849  -4.523  -2.634  0.00  0.00    -0.020 A 
ATOM      8  C   UNK d   0     -14.399  -4.017  -1.560  0.00  0.00    -0.011 A 
ATOM      9  C   UNK d   0     -13.360  -3.868  -0.556  0.00  0.00     0.067 A 
ATOM     10  C   UNK d   0     -13.292  -3.421   0.773  0.00  0.00     0.062 C 
ATOM     11  N   UNK d   0     -12.206  -4.303  -1.105  0.00  0.00    -0.248 NA
ATOM     12  C   UNK d   0     -12.244  -3.613   1.679  0.00  0.00     0.041 A 
ATOM     13  N   UNK d   0     -10.909  -3.522   1.523  0.00  0.00    -0.355 N 
ATOM     14  C   UNK d   0     -12.544  -4.026   2.990  0.00  0.00    -0.022 A 
ATOM     15  C   UNK d   0     -10.355  -3.874   2.699  0.00  0.00     0.042 A 
ATOM     16  H   UNK d   0     -10.371  -3.197   0.606  0.00  0.00     0.166 HD
ATOM     17  C   UNK d   0      -9.002  -3.952   3.084  0.00  0.00     0.062 C 
ATOM     18  C   UNK d   0     -11.349  -4.197   3.643  0.00  0.00    -0.013 A 
ATOM     19  C   UNK d   0      -7.941  -4.490   2.402  0.00  0.00     0.067 A 
ATOM     20  N   UNK d   0      -8.146  -4.814   1.122  0.00  0.00    -0.248 NA
ATOM     21  C   UNK d   0      -6.565  -4.839   2.716  0.00  0.00    -0.011 A 
ATOM     22  C   UNK d   0      -7.005  -5.351   0.579  0.00  0.00     0.066 A 
ATOM     23  C   UNK d   0      -7.066  -5.700  -0.763  0.00  0.00     0.062 C 
ATOM     24  C   UNK d   0      -6.025  -5.347   1.647  0.00  0.00    -0.020 A 
ATOM     25  C   UNK d   0      -8.125  -5.487  -1.659  0.00  0.00     0.041 A 
ATOM     26  N   UNK d   0      -9.451  -5.591  -1.508  0.00  0.00    -0.355 N 
ATOM     27  C   UNK d   0      -7.823  -5.068  -2.973  0.00  0.00    -0.022 A 
ATOM     28  C   UNK d   0     -10.005  -5.249  -2.682  0.00  0.00     0.042 A 
ATOM     29  H   UNK d   0      -9.990  -5.929  -0.589  0.00  0.00     0.166 HD
ATOM     30  C   UNK d   0     -11.349  -5.177  -3.081  0.00  0.00     0.062 C 
ATOM     31  C   UNK d   0      -9.007  -4.915  -3.627  0.00  0.00    -0.013 A 
ATOM     32  C   UNK d   0     -12.433  -4.710  -2.355  0.00  0.00     0.066 A 
BRANCH   8  33
ATOM     33  C   UNK d   0     -15.816  -3.651  -1.381  0.00  0.00     0.151 C 
BRANCH  33  34
ATOM     34  C   UNK d   0     -16.082  -2.232  -1.682  0.00  0.00     0.143 C 
ATOM     35  O   UNK d   0     -15.651  -1.334  -0.945  0.00  0.00    -0.650 OA
BRANCH  34  36
ATOM     36  O   UNK d   0     -16.819  -1.905  -2.796  0.00  0.00    -0.776 OA
ATOM     37  H   UNK d   0     -17.338  -2.621  -3.323  0.00  0.00     0.167 HD
ENDBRANCH  34  36
ENDBRANCH  33  34
ENDBRANCH   8  33
BRANCH  31  38
ATOM     38  C   UNK d   0      -9.183  -4.465  -5.059  0.00  0.00     0.151 C 
BRANCH  38  39
ATOM     39  C   UNK d   0      -9.275  -5.572  -5.987  0.00  0.00     0.143 C 
ATOM     40  O   UNK d   0      -9.534  -6.731  -5.618  0.00  0.00    -0.650 OA
BRANCH  39  41
ATOM     41  O   UNK d   0      -9.070  -5.345  -7.348  0.00  0.00    -0.776 OA
ATOM     42  H   UNK d   0      -9.515  -4.514  -7.750  0.00  0.00     0.167 HD
ENDBRANCH  39  41
ENDBRANCH  38  39
ENDBRANCH  31  38
BRANCH  27  43
ATOM     43  C   UNK d   0      -6.481  -4.817  -3.615  0.00  0.00     0.052 C 
BRANCH  43  44
ATOM     44  C   UNK d   0      -5.950  -6.001  -4.357  0.00  0.00     0.115 C 
BRANCH  44  45
ATOM     45  C   UNK d   0      -5.396  -5.486  -5.636  0.00  0.00     0.139 C 
ATOM     46  O   UNK d   0      -6.171  -5.383  -6.618  0.00  0.00    -0.650 OA
BRANCH  45  47
ATOM     47  O   UNK d   0      -4.077  -5.115  -5.783  0.00  0.00    -0.776 OA
ATOM     48  H   UNK d   0      -3.673  -4.285  -5.318  0.00  0.00     0.167 HD
ENDBRANCH  45  47
ENDBRANCH  44  45
ENDBRANCH  43  44
ENDBRANCH  27  43
BRANCH  24  49
ATOM     49  C   UNK d   0      -4.630  -5.800   1.510  0.00  0.00     0.052 C 
BRANCH  49  50
ATOM     50  C   UNK d   0      -4.478  -7.198   2.053  0.00  0.00     0.115 C 
BRANCH  50  51
ATOM     51  C   UNK d   0      -3.532  -7.388   3.145  0.00  0.00     0.139 C 
ATOM     52  O   UNK d   0      -3.301  -8.512   3.651  0.00  0.00    -0.650 OA
BRANCH  51  53
ATOM     53  O   UNK d   0      -2.852  -6.297   3.661  0.00  0.00    -0.776 OA
ATOM     54  H   UNK d   0      -1.955  -6.067   3.271  0.00  0.00     0.167 HD
ENDBRANCH  51  53
ENDBRANCH  50  51
ENDBRANCH  49  50
ENDBRANCH  24  49
BRANCH  21  55
ATOM     55  C   UNK d   0      -5.934  -4.625   4.052  0.00  0.00     0.151 C 
BRANCH  55  56
ATOM     56  C   UNK d   0      -4.882  -3.598   4.007  0.00  0.00     0.143 C 
ATOM     57  O   UNK d   0      -3.832  -3.678   4.674  0.00  0.00    -0.650 OA
BRANCH  56  58
ATOM     58  O   UNK d   0      -5.085  -2.497   3.177  0.00  0.00    -0.776 OA
ATOM     59  H   UNK d   0      -6.070  -2.185   3.099  0.00  0.00     0.167 HD
ENDBRANCH  56  58
ENDBRANCH  55  56
ENDBRANCH  21  55
BRANCH  18  60
ATOM     60  C   UNK d   0     -11.203  -4.645   5.076  0.00  0.00     0.151 C 
BRANCH  60  61
ATOM     61  C   UNK d   0     -11.032  -6.105   5.028  0.00  0.00     0.143 C 
ATOM     62  O   UNK d   0      -9.978  -6.724   4.884  0.00  0.00    -0.650 OA
BRANCH  61  63
ATOM     63  O   UNK d   0     -12.225  -6.856   5.164  0.00  0.00    -0.776 OA
ATOM     64  H   UNK d   0     -12.671  -7.269   4.365  0.00  0.00     0.167 HD
ENDBRANCH  61  63
ENDBRANCH  60  61
ENDBRANCH  18  60
BRANCH  14  65
ATOM     65  C   UNK d   0     -13.863  -4.173   3.694  0.00  0.00     0.052 C 
BRANCH  65  66
ATOM     66  C   UNK d   0     -14.530  -2.870   3.960  0.00  0.00     0.115 C 
BRANCH  66  67
ATOM     67  C   UNK d   0     -15.882  -2.848   4.442  0.00  0.00     0.139 C 
ATOM     68  O   UNK d   0     -16.810  -3.323   3.689  0.00  0.00    -0.650 OA
BRANCH  67  69
ATOM     69  O   UNK d   0     -16.345  -2.360   5.663  0.00  0.00    -0.776 OA
ATOM     70  H   UNK d   0     -17.333  -2.068   5.684  0.00  0.00     0.167 HD
ENDBRANCH  67  69
ENDBRANCH  66  67
ENDBRANCH  65  66
ENDBRANCH  14  65
ENDBRANCH   6   7
ENDBRANCH   5   6
ENDBRANCH   2   5
TORSDOF 28
ENDMDL
MODEL 19
REMARK VINA RESULT:      -7.5     32.934     35.417
REMARK  28 active torsions:
REMARK  status: ('A' for Active; 'I' for Inactive)
REMARK    1  A    between atoms: C_2  and  O_3 
REMARK    2  A    between atoms: C_2  and  C_4 
REMARK    3  A    between atoms: C_4  and  C_5 
REMARK    4  A    between atoms: C_5  and  C_6 
REMARK    5  A    between atoms: C_7  and  C_8 
REMARK    6  A    between atoms: C_8  and  C_9 
REMARK    7  A    between atoms: C_9  and  O_11 
REMARK    8  A    between atoms: C_28  and  C_29 
REMARK    9  A    between atoms: C_29  and  C_30 
REMARK   10  A    between atoms: C_30  and  O_32 
REMARK   11  A    between atoms: C_33  and  C_34 
REMARK   12  A    between atoms: C_34  and  C_35 
REMARK   13  A    between atoms: C_35  and  C_36 
REMARK   14  A    between atoms: C_36  and  O_38 
REMARK   15  A    between atoms: C_39  and  C_40 
REMARK   16  A    between atoms: C_40  and  C_41 
REMARK   17  A    between atoms: C_41  and  C_42 
REMARK   18  A    between atoms: C_42  and  O_44 
REMARK   19  A    between atoms: C_45  and  C_46 
REMARK   20  A    between atoms: C_46  and  C_47 
REMARK   21  A    between atoms: C_47  and  O_49 
REMARK   22  A    between atoms: C_50  and  C_51 
REMARK   23  A    between atoms: C_51  and  C_52 
REMARK   24  A    between atoms: C_52  and  O_54 
REMARK   25  A    between atoms: C_55  and  C_56 
REMARK   26  A    between atoms: C_56  and  C_57 
REMARK   27  A    between atoms: C_57  and  C_58 
REMARK   28  A    between atoms: C_58  and  O_60 
ROOT
ATOM      1  O   UNK d   0     -14.127  -2.153   3.755  0.00  0.00    -0.650 OA
ATOM      2  C   UNK d   0     -14.807  -3.046   4.307  0.00  0.00     0.139 C 
ENDROOT
BRANCH   2   3
ATOM      3  O   UNK d   0     -14.223  -4.256   4.598  0.00  0.00    -0.776 OA
ATOM      4  H   UNK d   0     -14.445  -4.754   5.462  0.00  0.00     0.167 HD
ENDBRANCH   2   3
BRANCH   2   5
ATOM      5  C   UNK d   0     -16.237  -2.796   4.644  0.00  0.00     0.115 C 
BRANCH   5   6
ATOM      6  C   UNK d   0     -17.016  -4.082   4.583  0.00  0.00     0.052 C 
BRANCH   6   7
ATOM      7  C   UNK d   0     -17.888  -4.176   3.353  0.00  0.00    -0.020 A 
ATOM      8  C   UNK d   0     -17.553  -4.620   2.169  0.00  0.00    -0.011 A 
ATOM      9  C   UNK d   0     -18.717  -4.509   1.306  0.00  0.00     0.067 A 
ATOM     10  C   UNK d   0     -19.023  -4.821  -0.028  0.00  0.00     0.062 C 
ATOM     11  N   UNK d   0     -19.715  -3.982   2.046  0.00  0.00    -0.248 NA
ATOM     12  C   UNK d   0     -20.292  -4.900  -0.610  0.00  0.00     0.041 A 
ATOM     13  N   UNK d   0     -21.373  -4.106  -0.490  0.00  0.00    -0.355 N 
ATOM     14  C   UNK d   0     -20.595  -5.997  -1.436  0.00  0.00    -0.022 A 
ATOM     15  C   UNK d   0     -22.356  -4.676  -1.213  0.00  0.00     0.042 A 
ATOM     16  H   UNK d   0     -21.435  -3.152   0.078  0.00  0.00     0.166 HD
ATOM     17  C   UNK d   0     -23.686  -4.263  -1.431  0.00  0.00     0.062 C 
ATOM     18  C   UNK d   0     -21.906  -5.863  -1.821  0.00  0.00    -0.013 A 
ATOM     19  C   UNK d   0     -24.601  -3.789  -0.526  0.00  0.00     0.067 A 
ATOM     20  N   UNK d   0     -24.145  -3.481   0.690  0.00  0.00    -0.248 NA
ATOM     21  C   UNK d   0     -26.031  -3.526  -0.527  0.00  0.00    -0.011 A 
ATOM     22  C   UNK d   0     -25.173  -3.037   1.486  0.00  0.00     0.066 A 
ATOM     23  C   UNK d   0     -24.831  -2.646   2.772  0.00  0.00     0.062 C 
ATOM     24  C   UNK d   0     -26.360  -3.090   0.655  0.00  0.00    -0.020 A 
ATOM     25  C   UNK d   0     -23.548  -2.561   3.334  0.00  0.00     0.041 A 
ATOM     26  N   UNK d   0     -22.478  -3.358   3.227  0.00  0.00    -0.355 N 
ATOM     27  C   UNK d   0     -23.244  -1.457   4.160  0.00  0.00    -0.022 A 
ATOM     28  C   UNK d   0     -21.499  -2.797   3.954  0.00  0.00     0.042 A 
ATOM     29  H   UNK d   0     -22.421  -4.323   2.664  0.00  0.00     0.166 HD
ATOM     30  C   UNK d   0     -20.175  -3.201   4.187  0.00  0.00     0.062 C 
ATOM     31  C   UNK d   0     -21.949  -1.598   4.556  0.00  0.00    -0.013 A 
ATOM     32  C   UNK d   0     -19.281  -3.759   3.288  0.00  0.00     0.066 A 
BRANCH   8  33
ATOM     33  C   UNK d   0     -16.235  -5.138   1.759  0.00  0.00     0.151 C 
BRANCH  33  34
ATOM     34  C   UNK d   0     -15.596  -4.314   0.717  0.00  0.00     0.143 C 
ATOM     35  O   UNK d   0     -15.624  -4.658  -0.473  0.00  0.00    -0.650 OA
BRANCH  34  36
ATOM     36  O   UNK d   0     -14.960  -3.148   1.075  0.00  0.00    -0.776 OA
ATOM     37  H   UNK d   0     -14.854  -2.878   2.062  0.00  0.00     0.167 HD
ENDBRANCH  34  36
ENDBRANCH  33  34
ENDBRANCH   8  33
BRANCH  31  38
ATOM     38  C   UNK d   0     -21.180  -0.646   5.441  0.00  0.00     0.151 C 
BRANCH  38  39
ATOM     39  C   UNK d   0     -21.196  -1.038   6.835  0.00  0.00     0.143 C 
ATOM     40  O   UNK d   0     -22.114  -1.720   7.323  0.00  0.00    -0.650 OA
BRANCH  39  41
ATOM     41  O   UNK d   0     -20.151  -0.644   7.670  0.00  0.00    -0.776 OA
ATOM     42  H   UNK d   0     -20.411  -0.174   8.543  0.00  0.00     0.167 HD
ENDBRANCH  39  41
ENDBRANCH  38  39
ENDBRANCH  31  38
BRANCH  27  43
ATOM     43  C   UNK d   0     -24.120  -0.302   4.577  0.00  0.00     0.052 C 
BRANCH  43  44
ATOM     44  C   UNK d   0     -24.000   0.885   3.678  0.00  0.00     0.115 C 
BRANCH  44  45
ATOM     45  C   UNK d   0     -25.287   0.992   2.942  0.00  0.00     0.139 C 
ATOM     46  O   UNK d   0     -26.353   0.844   3.590  0.00  0.00    -0.650 OA
BRANCH  45  47
ATOM     47  O   UNK d   0     -25.356   1.250   1.590  0.00  0.00    -0.776 OA
ATOM     48  H   UNK d   0     -24.893   2.061   1.150  0.00  0.00     0.167 HD
ENDBRANCH  45  47
ENDBRANCH  44  45
ENDBRANCH  43  44
ENDBRANCH  27  43
BRANCH  24  49
ATOM     49  C   UNK d   0     -27.704  -2.666   1.081  0.00  0.00     0.052 C 
BRANCH  49  50
ATOM     50  C   UNK d   0     -27.863  -1.177   0.910  0.00  0.00     0.115 C 
BRANCH  50  51
ATOM     51  C   UNK d   0     -28.670  -0.720  -0.213  0.00  0.00     0.139 C 
ATOM     52  O   UNK d   0     -28.728   0.484  -0.558  0.00  0.00    -0.650 OA
BRANCH  51  53
ATOM     53  O   UNK d   0     -29.413  -1.635  -0.943  0.00  0.00    -0.776 OA
ATOM     54  H   UNK d   0     -30.098  -1.284  -1.588  0.00  0.00     0.167 HD
ENDBRANCH  51  53
ENDBRANCH  50  51
ENDBRANCH  49  50
ENDBRANCH  24  49
BRANCH  21  55
ATOM     55  C   UNK d   0     -26.918  -3.733  -1.709  0.00  0.00     0.151 C 
BRANCH  55  56
ATOM     56  C   UNK d   0     -27.272  -5.149  -1.891  0.00  0.00     0.143 C 
ATOM     57  O   UNK d   0     -27.971  -5.553  -2.841  0.00  0.00    -0.650 OA
BRANCH  56  58
ATOM     58  O   UNK d   0     -26.797  -6.063  -0.952  0.00  0.00    -0.776 OA
ATOM     59  H   UNK d   0     -27.532  -6.555  -0.412  0.00  0.00     0.167 HD
ENDBRANCH  56  58
ENDBRANCH  55  56
ENDBRANCH  21  55
BRANCH  18  60
ATOM     60  C   UNK d   0     -22.649  -6.830  -2.710  0.00  0.00     0.151 C 
BRANCH  60  61
ATOM     61  C   UNK d   0     -23.260  -7.819  -1.809  0.00  0.00     0.143 C 
ATOM     62  O   UNK d   0     -24.194  -7.635  -1.029  0.00  0.00    -0.650 OA
BRANCH  61  63
ATOM     63  O   UNK d   0     -22.694  -9.115  -1.866  0.00  0.00    -0.776 OA
ATOM     64  H   UNK d   0     -22.954  -9.824  -1.202  0.00  0.00     0.167 HD
ENDBRANCH  61  63
ENDBRANCH  60  61
ENDBRANCH  18  60
BRANCH  14  65
ATOM     65  C   UNK d   0     -19.720  -7.098  -1.964  0.00  0.00     0.052 C 
BRANCH  65  66
ATOM     66  C   UNK d   0     -19.026  -6.734  -3.229  0.00  0.00     0.115 C 
BRANCH  66  67
ATOM     67  C   UNK d   0     -17.711  -6.160  -3.179  0.00  0.00     0.139 C 
ATOM     68  O   UNK d   0     -17.449  -5.158  -3.942  0.00  0.00    -0.650 OA
BRANCH  67  69
ATOM     69  O   UNK d   0     -16.636  -6.557  -2.384  0.00  0.00    -0.776 OA
ATOM     70  H   UNK d   0     -15.744  -6.073  -2.563  0.00  0.00     0.167 HD
ENDBRANCH  67  69
ENDBRANCH  66  67
ENDBRANCH  65  66
ENDBRANCH  14  65
ENDBRANCH   6   7
ENDBRANCH   5   6
ENDBRANCH   2   5
TORSDOF 28
ENDMDL
MODEL 20
REMARK VINA RESULT:      -7.5     21.700     24.897
REMARK  28 active torsions:
REMARK  status: ('A' for Active; 'I' for Inactive)
REMARK    1  A    between atoms: C_2  and  O_3 
REMARK    2  A    between atoms: C_2  and  C_4 
REMARK    3  A    between atoms: C_4  and  C_5 
REMARK    4  A    between atoms: C_5  and  C_6 
REMARK    5  A    between atoms: C_7  and  C_8 
REMARK    6  A    between atoms: C_8  and  C_9 
REMARK    7  A    between atoms: C_9  and  O_11 
REMARK    8  A    between atoms: C_28  and  C_29 
REMARK    9  A    between atoms: C_29  and  C_30 
REMARK   10  A    between atoms: C_30  and  O_32 
REMARK   11  A    between atoms: C_33  and  C_34 
REMARK   12  A    between atoms: C_34  and  C_35 
REMARK   13  A    between atoms: C_35  and  C_36 
REMARK   14  A    between atoms: C_36  and  O_38 
REMARK   15  A    between atoms: C_39  and  C_40 
REMARK   16  A    between atoms: C_40  and  C_41 
REMARK   17  A    between atoms: C_41  and  C_42 
REMARK   18  A    between atoms: C_42  and  O_44 
REMARK   19  A    between atoms: C_45  and  C_46 
REMARK   20  A    between atoms: C_46  and  C_47 
REMARK   21  A    between atoms: C_47  and  O_49 
REMARK   22  A    between atoms: C_50  and  C_51 
REMARK   23  A    between atoms: C_51  and  C_52 
REMARK   24  A    between atoms: C_52  and  O_54 
REMARK   25  A    between atoms: C_55  and  C_56 
REMARK   26  A    between atoms: C_56  and  C_57 
REMARK   27  A    between atoms: C_57  and  C_58 
REMARK   28  A    between atoms: C_58  and  O_60 
ROOT
ATOM      1  O   UNK d   0      -2.107  -3.717   4.336  0.00  0.00    -0.650 OA
ATOM      2  C   UNK d   0      -2.877  -4.676   4.106  0.00  0.00     0.139 C 
ENDROOT
BRANCH   2   3
ATOM      3  O   UNK d   0      -2.832  -5.785   4.916  0.00  0.00    -0.776 OA
ATOM      4  H   UNK d   0      -3.663  -6.105   5.418  0.00  0.00     0.167 HD
ENDBRANCH   2   3
BRANCH   2   5
ATOM      5  C   UNK d   0      -3.831  -4.613   2.962  0.00  0.00     0.115 C 
BRANCH   5   6
ATOM      6  C   UNK d   0      -4.817  -3.495   3.172  0.00  0.00     0.052 C 
BRANCH   6   7
ATOM      7  C   UNK d   0      -6.241  -3.987   3.271  0.00  0.00    -0.020 A 
ATOM      8  C   UNK d   0      -6.870  -4.401   4.341  0.00  0.00    -0.011 A 
ATOM      9  C   UNK d   0      -8.215  -4.782   3.947  0.00  0.00     0.067 A 
ATOM     10  C   UNK d   0      -9.361  -5.269   4.596  0.00  0.00     0.062 C 
ATOM     11  N   UNK d   0      -8.318  -4.574   2.617  0.00  0.00    -0.248 NA
ATOM     12  C   UNK d   0     -10.665  -5.317   4.091  0.00  0.00     0.041 A 
ATOM     13  N   UNK d   0     -11.134  -5.670   2.879  0.00  0.00    -0.355 N 
ATOM     14  C   UNK d   0     -11.727  -4.888   4.907  0.00  0.00    -0.022 A 
ATOM     15  C   UNK d   0     -12.465  -5.468   2.903  0.00  0.00     0.042 A 
ATOM     16  H   UNK d   0     -10.539  -6.072   2.029  0.00  0.00     0.166 HD
ATOM     17  C   UNK d   0     -13.438  -5.674   1.905  0.00  0.00     0.062 C 
ATOM     18  C   UNK d   0     -12.874  -4.977   4.158  0.00  0.00    -0.013 A 
ATOM     19  C   UNK d   0     -13.394  -5.343   0.575  0.00  0.00     0.067 A 
ATOM     20  N   UNK d   0     -12.214  -4.949   0.089  0.00  0.00    -0.248 NA
ATOM     21  C   UNK d   0     -14.348  -5.285  -0.520  0.00  0.00    -0.011 A 
ATOM     22  C   UNK d   0     -12.327  -4.638  -1.244  0.00  0.00     0.066 A 
ATOM     23  C   UNK d   0     -11.162  -4.248  -1.887  0.00  0.00     0.062 C 
ATOM     24  C   UNK d   0     -13.718  -4.868  -1.580  0.00  0.00    -0.020 A 
ATOM     25  C   UNK d   0      -9.859  -4.220  -1.365  0.00  0.00     0.041 A 
ATOM     26  N   UNK d   0      -9.391  -3.855  -0.166  0.00  0.00    -0.355 N 
ATOM     27  C   UNK d   0      -8.794  -4.655  -2.184  0.00  0.00    -0.022 A 
ATOM     28  C   UNK d   0      -8.063  -4.047  -0.190  0.00  0.00     0.042 A 
ATOM     29  H   UNK d   0      -9.989  -3.441   0.683  0.00  0.00     0.166 HD
ATOM     30  C   UNK d   0      -7.082  -3.837   0.792  0.00  0.00     0.062 C 
ATOM     31  C   UNK d   0      -7.654  -4.549  -1.448  0.00  0.00    -0.013 A 
ATOM     32  C   UNK d   0      -7.163  -4.096   2.151  0.00  0.00     0.066 A 
BRANCH   8  33
ATOM     33  C   UNK d   0      -6.328  -4.480   5.711  0.00  0.00     0.151 C 
BRANCH  33  34
ATOM     34  C   UNK d   0      -6.182  -5.867   6.187  0.00  0.00     0.143 C 
ATOM     35  O   UNK d   0      -5.426  -6.662   5.610  0.00  0.00    -0.650 OA
BRANCH  34  36
ATOM     36  O   UNK d   0      -6.897  -6.282   7.287  0.00  0.00    -0.776 OA
ATOM     37  H   UNK d   0      -7.538  -5.645   7.779  0.00  0.00     0.167 HD
ENDBRANCH  34  36
ENDBRANCH  33  34
ENDBRANCH   8  33
BRANCH  31  38
ATOM     38  C   UNK d   0      -6.262  -4.916  -1.905  0.00  0.00     0.151 C 
BRANCH  38  39
ATOM     39  C   UNK d   0      -6.023  -6.343  -1.891  0.00  0.00     0.143 C 
ATOM     40  O   UNK d   0      -5.508  -6.942  -2.852  0.00  0.00    -0.650 OA
BRANCH  39  41
ATOM     41  O   UNK d   0      -6.378  -7.087  -0.766  0.00  0.00    -0.776 OA
ATOM     42  H   UNK d   0      -5.747  -7.849  -0.499  0.00  0.00     0.167 HD
ENDBRANCH  39  41
ENDBRANCH  38  39
ENDBRANCH  31  38
BRANCH  27  43
ATOM     43  C   UNK d   0      -8.822  -5.153  -3.608  0.00  0.00     0.052 C 
BRANCH  43  44
ATOM     44  C   UNK d   0      -8.643  -4.066  -4.618  0.00  0.00     0.115 C 
BRANCH  44  45
ATOM     45  C   UNK d   0      -7.431  -4.414  -5.405  0.00  0.00     0.139 C 
ATOM     46  O   UNK d   0      -7.439  -5.485  -6.060  0.00  0.00    -0.650 OA
BRANCH  45  47
ATOM     47  O   UNK d   0      -6.313  -3.610  -5.449  0.00  0.00    -0.776 OA
ATOM     48  H   UNK d   0      -5.429  -3.854  -4.974  0.00  0.00     0.167 HD
ENDBRANCH  45  47
ENDBRANCH  44  45
ENDBRANCH  43  44
ENDBRANCH  27  43
BRANCH  24  49
ATOM     49  C   UNK d   0     -14.297  -4.700  -2.924  0.00  0.00     0.052 C 
BRANCH  49  50
ATOM     50  C   UNK d   0     -14.850  -3.308  -3.087  0.00  0.00     0.115 C 
BRANCH  50  51
ATOM     51  C   UNK d   0     -16.244  -3.189  -3.493  0.00  0.00     0.139 C 
ATOM     52  O   UNK d   0     -16.729  -3.844  -4.446  0.00  0.00    -0.650 OA
BRANCH  51  53
ATOM     53  O   UNK d   0     -17.085  -2.320  -2.815  0.00  0.00    -0.776 OA
ATOM     54  H   UNK d   0     -16.696  -1.466  -2.455  0.00  0.00     0.167 HD
ENDBRANCH  51  53
ENDBRANCH  50  51
ENDBRANCH  49  50
ENDBRANCH  24  49
BRANCH  21  55
ATOM     55  C   UNK d   0     -15.788  -5.658  -0.393  0.00  0.00     0.151 C 
BRANCH  55  56
ATOM     56  C   UNK d   0     -16.644  -4.482  -0.174  0.00  0.00     0.143 C 
ATOM     57  O   UNK d   0     -17.828  -4.427  -0.561  0.00  0.00    -0.650 OA
BRANCH  56  58
ATOM     58  O   UNK d   0     -16.092  -3.393   0.498  0.00  0.00    -0.776 OA
ATOM     59  H   UNK d   0     -15.760  -2.625  -0.114  0.00  0.00     0.167 HD
ENDBRANCH  56  58
ENDBRANCH  55  56
ENDBRANCH  21  55
BRANCH  18  60
ATOM     60  C   UNK d   0     -14.254  -4.607   4.642  0.00  0.00     0.151 C 
BRANCH  60  61
ATOM     61  C   UNK d   0     -14.686  -3.479   3.804  0.00  0.00     0.143 C 
ATOM     62  O   UNK d   0     -15.757  -3.366   3.206  0.00  0.00    -0.650 OA
BRANCH  61  63
ATOM     63  O   UNK d   0     -13.752  -2.421   3.688  0.00  0.00    -0.776 OA
ATOM     64  H   UNK d   0     -13.798  -1.620   4.293  0.00  0.00     0.167 HD
ENDBRANCH  61  63
ENDBRANCH  60  61
ENDBRANCH  18  60
BRANCH  14  65
ATOM     65  C   UNK d   0     -11.753  -4.497   6.358  0.00  0.00     0.052 C 
BRANCH  65  66
ATOM     66  C   UNK d   0     -11.765  -5.668   7.275  0.00  0.00     0.115 C 
BRANCH  66  67
ATOM     67  C   UNK d   0     -10.575  -6.018   7.998  0.00  0.00     0.139 C 
ATOM     68  O   UNK d   0     -10.514  -7.175   8.557  0.00  0.00    -0.650 OA
BRANCH  67  69
ATOM     69  O   UNK d   0      -9.430  -5.244   8.183  0.00  0.00    -0.776 OA
ATOM     70  H   UNK d   0      -9.580  -4.318   8.609  0.00  0.00     0.167 HD
ENDBRANCH  67  69
ENDBRANCH  66  67
ENDBRANCH  65  66
ENDBRANCH  14  65
ENDBRANCH   6   7
ENDBRANCH   5   6
ENDBRANCH   2   5
TORSDOF 28
ENDMDL
