MODEL 1
REMARK VINA RESULT:      -9.8      0.000      0.000
REMARK  28 active torsions:
REMARK  status: ('A' for Active; 'I' for Inactive)
REMARK    1  A    between atoms: C_2  and  O_3 
REMARK    2  A    between atoms: C_2  and  C_4 
REMARK    3  A    between atoms: C_4  and  C_5 
REMARK    4  A    between atoms: C_5  and  C_6 
REMARK    5  A    between atoms: C_7  and  C_8 
REMARK    6  A    between atoms: C_8  and  C_9 
REMARK    7  A    between atoms: C_9  and  O_11 
REMARK    8  A    between atoms: C_28  and  C_29 
REMARK    9  A    between atoms: C_29  and  C_30 
REMARK   10  A    between atoms: C_30  and  O_32 
REMARK   11  A    between atoms: C_33  and  C_34 
REMARK   12  A    between atoms: C_34  and  C_35 
REMARK   13  A    between atoms: C_35  and  C_36 
REMARK   14  A    between atoms: C_36  and  O_38 
REMARK   15  A    between atoms: C_39  and  C_40 
REMARK   16  A    between atoms: C_40  and  C_41 
REMARK   17  A    between atoms: C_41  and  C_42 
REMARK   18  A    between atoms: C_42  and  O_44 
REMARK   19  A    between atoms: C_45  and  C_46 
REMARK   20  A    between atoms: C_46  and  C_47 
REMARK   21  A    between atoms: C_47  and  O_49 
REMARK   22  A    between atoms: C_50  and  C_51 
REMARK   23  A    between atoms: C_51  and  C_52 
REMARK   24  A    between atoms: C_52  and  O_54 
REMARK   25  A    between atoms: C_55  and  C_56 
REMARK   26  A    between atoms: C_56  and  C_57 
REMARK   27  A    between atoms: C_57  and  C_58 
REMARK   28  A    between atoms: C_58  and  O_60 
ROOT
ATOM      1  O   UNK d   0       7.922  21.768  -4.180  0.00  0.00    -0.650 OA
ATOM      2  C   UNK d   0       8.321  21.512  -3.022  0.00  0.00     0.139 C 
ENDROOT
BRANCH   2   3
ATOM      3  O   UNK d   0       7.664  20.562  -2.277  0.00  0.00    -0.776 OA
ATOM      4  H   UNK d   0       8.107  20.131  -1.464  0.00  0.00     0.167 HD
ENDBRANCH   2   3
BRANCH   2   5
ATOM      5  C   UNK d   0       9.497  22.234  -2.459  0.00  0.00     0.115 C 
BRANCH   5   6
ATOM      6  C   UNK d   0       9.404  23.702  -2.775  0.00  0.00     0.052 C 
BRANCH   6   7
ATOM      7  C   UNK d   0      10.681  24.253  -3.363  0.00  0.00    -0.020 A 
ATOM      8  C   UNK d   0      11.305  25.353  -3.027  0.00  0.00    -0.011 A 
ATOM      9  C   UNK d   0      12.481  25.473  -3.873  0.00  0.00     0.067 A 
ATOM     10  C   UNK d   0      13.546  26.378  -4.004  0.00  0.00     0.062 C 
ATOM     11  N   UNK d   0      12.492  24.405  -4.698  0.00  0.00    -0.248 NA
ATOM     12  C   UNK d   0      14.746  26.180  -4.695  0.00  0.00     0.041 A 
ATOM     13  N   UNK d   0      14.996  25.627  -5.897  0.00  0.00    -0.355 N 
ATOM     14  C   UNK d   0      15.955  26.546  -4.076  0.00  0.00    -0.022 A 
ATOM     15  C   UNK d   0      16.333  25.624  -6.053  0.00  0.00     0.042 A 
ATOM     16  H   UNK d   0      14.241  25.263  -6.628  0.00  0.00     0.166 HD
ATOM     17  C   UNK d   0      17.127  25.164  -7.123  0.00  0.00     0.062 C 
ATOM     18  C   UNK d   0      16.969  26.192  -4.932  0.00  0.00    -0.013 A 
ATOM     19  C   UNK d   0      17.024  23.995  -7.832  0.00  0.00     0.067 A 
ATOM     20  N   UNK d   0      15.921  23.266  -7.641  0.00  0.00    -0.248 NA
ATOM     21  C   UNK d   0      17.849  23.278  -8.790  0.00  0.00    -0.011 A 
ATOM     22  C   UNK d   0      15.966  22.124  -8.402  0.00  0.00     0.066 A 
ATOM     23  C   UNK d   0      14.860  21.290  -8.328  0.00  0.00     0.062 C 
ATOM     24  C   UNK d   0      17.226  22.182  -9.116  0.00  0.00    -0.020 A 
ATOM     25  C   UNK d   0      13.659  21.513  -7.638  0.00  0.00     0.041 A 
ATOM     26  N   UNK d   0      13.411  22.050  -6.437  0.00  0.00    -0.355 N 
ATOM     27  C   UNK d   0      12.445  21.150  -8.261  0.00  0.00    -0.022 A 
ATOM     28  C   UNK d   0      12.078  22.045  -6.275  0.00  0.00     0.042 A 
ATOM     29  H   UNK d   0      14.171  22.405  -5.698  0.00  0.00     0.166 HD
ATOM     30  C   UNK d   0      11.276  22.491  -5.212  0.00  0.00     0.062 C 
ATOM     31  C   UNK d   0      11.440  21.484  -7.406  0.00  0.00    -0.013 A 
ATOM     32  C   UNK d   0      11.435  23.632  -4.442  0.00  0.00     0.066 A 
BRANCH   8  33
ATOM     33  C   UNK d   0      10.903  26.315  -1.985  0.00  0.00     0.151 C 
BRANCH  33  34
ATOM     34  C   UNK d   0       9.634  26.998  -2.298  0.00  0.00     0.143 C 
ATOM     35  O   UNK d   0       9.495  27.629  -3.355  0.00  0.00    -0.650 OA
BRANCH  34  36
ATOM     36  O   UNK d   0       8.593  26.932  -1.401  0.00  0.00    -0.776 OA
ATOM     37  H   UNK d   0       8.749  26.666  -0.419  0.00  0.00     0.167 HD
ENDBRANCH  34  36
ENDBRANCH  33  34
ENDBRANCH   8  33
BRANCH  31  38
ATOM     38  C   UNK d   0       9.961  21.295  -7.651  0.00  0.00     0.151 C 
BRANCH  38  39
ATOM     39  C   UNK d   0       9.470  20.022  -7.167  0.00  0.00     0.143 C 
ATOM     40  O   UNK d   0       9.053  19.135  -7.933  0.00  0.00    -0.650 OA
BRANCH  39  41
ATOM     41  O   UNK d   0       9.458  19.768  -5.796  0.00  0.00    -0.776 OA
ATOM     42  H   UNK d   0       9.988  18.952  -5.474  0.00  0.00     0.167 HD
ENDBRANCH  39  41
ENDBRANCH  38  39
ENDBRANCH  31  38
BRANCH  27  43
ATOM     43  C   UNK d   0      12.213  20.511  -9.607  0.00  0.00     0.052 C 
BRANCH  43  44
ATOM     44  C   UNK d   0      13.132  19.366  -9.884  0.00  0.00     0.115 C 
BRANCH  44  45
ATOM     45  C   UNK d   0      12.344  18.126  -9.662  0.00  0.00     0.139 C 
ATOM     46  O   UNK d   0      12.967  17.069  -9.392  0.00  0.00    -0.650 OA
BRANCH  45  47
ATOM     47  O   UNK d   0      10.968  18.091  -9.735  0.00  0.00    -0.776 OA
ATOM     48  H   UNK d   0      10.381  17.619  -9.029  0.00  0.00     0.167 HD
ENDBRANCH  45  47
ENDBRANCH  44  45
ENDBRANCH  43  44
ENDBRANCH  27  43
BRANCH  24  49
ATOM     49  C   UNK d   0      17.688  21.177 -10.089  0.00  0.00     0.052 C 
BRANCH  49  50
ATOM     50  C   UNK d   0      17.564  19.791  -9.511  0.00  0.00     0.115 C 
BRANCH  50  51
ATOM     51  C   UNK d   0      18.281  18.721 -10.191  0.00  0.00     0.139 C 
ATOM     52  O   UNK d   0      18.983  17.881  -9.579  0.00  0.00    -0.650 OA
BRANCH  51  53
ATOM     53  O   UNK d   0      18.200  18.609 -11.571  0.00  0.00    -0.776 OA
ATOM     54  H   UNK d   0      18.475  19.398 -12.129  0.00  0.00     0.167 HD
ENDBRANCH  51  53
ENDBRANCH  50  51
ENDBRANCH  49  50
ENDBRANCH  24  49
BRANCH  21  55
ATOM     55  C   UNK d   0      19.172  23.764  -9.282  0.00  0.00     0.151 C 
BRANCH  55  56
ATOM     56  C   UNK d   0      19.034  24.654 -10.445  0.00  0.00     0.143 C 
ATOM     57  O   UNK d   0      19.240  24.274 -11.614  0.00  0.00    -0.650 OA
BRANCH  56  58
ATOM     58  O   UNK d   0      18.656  25.975 -10.210  0.00  0.00    -0.776 OA
ATOM     59  H   UNK d   0      17.908  26.332 -10.832  0.00  0.00     0.167 HD
ENDBRANCH  56  58
ENDBRANCH  55  56
ENDBRANCH  21  55
BRANCH  18  60
ATOM     60  C   UNK d   0      18.439  26.396  -4.662  0.00  0.00     0.151 C 
BRANCH  60  61
ATOM     61  C   UNK d   0      18.993  27.007  -5.880  0.00  0.00     0.143 C 
ATOM     62  O   UNK d   0      18.615  28.043  -6.428  0.00  0.00    -0.650 OA
BRANCH  61  63
ATOM     63  O   UNK d   0      20.076  26.309  -6.465  0.00  0.00    -0.776 OA
ATOM     64  H   UNK d   0      20.305  25.373  -6.179  0.00  0.00     0.167 HD
ENDBRANCH  61  63
ENDBRANCH  60  61
ENDBRANCH  18  60
BRANCH  14  65
ATOM     65  C   UNK d   0      16.218  27.285  -2.795  0.00  0.00     0.052 C 
BRANCH  65  66
ATOM     66  C   UNK d   0      16.044  26.435  -1.587  0.00  0.00     0.115 C 
BRANCH  66  67
ATOM     67  C   UNK d   0      17.100  26.352  -0.617  0.00  0.00     0.139 C 
ATOM     68  O   UNK d   0      18.089  27.167  -0.716  0.00  0.00    -0.650 OA
BRANCH  67  69
ATOM     69  O   UNK d   0      17.201  25.474   0.461  0.00  0.00    -0.776 OA
ATOM     70  H   UNK d   0      16.390  24.857   0.615  0.00  0.00     0.167 HD
ENDBRANCH  67  69
ENDBRANCH  66  67
ENDBRANCH  65  66
ENDBRANCH  14  65
ENDBRANCH   6   7
ENDBRANCH   5   6
ENDBRANCH   2   5
TORSDOF 28
ENDMDL
MODEL 2
REMARK VINA RESULT:      -9.4      1.719      9.665
REMARK  28 active torsions:
REMARK  status: ('A' for Active; 'I' for Inactive)
REMARK    1  A    between atoms: C_2  and  O_3 
REMARK    2  A    between atoms: C_2  and  C_4 
REMARK    3  A    between atoms: C_4  and  C_5 
REMARK    4  A    between atoms: C_5  and  C_6 
REMARK    5  A    between atoms: C_7  and  C_8 
REMARK    6  A    between atoms: C_8  and  C_9 
REMARK    7  A    between atoms: C_9  and  O_11 
REMARK    8  A    between atoms: C_28  and  C_29 
REMARK    9  A    between atoms: C_29  and  C_30 
REMARK   10  A    between atoms: C_30  and  O_32 
REMARK   11  A    between atoms: C_33  and  C_34 
REMARK   12  A    between atoms: C_34  and  C_35 
REMARK   13  A    between atoms: C_35  and  C_36 
REMARK   14  A    between atoms: C_36  and  O_38 
REMARK   15  A    between atoms: C_39  and  C_40 
REMARK   16  A    between atoms: C_40  and  C_41 
REMARK   17  A    between atoms: C_41  and  C_42 
REMARK   18  A    between atoms: C_42  and  O_44 
REMARK   19  A    between atoms: C_45  and  C_46 
REMARK   20  A    between atoms: C_46  and  C_47 
REMARK   21  A    between atoms: C_47  and  O_49 
REMARK   22  A    between atoms: C_50  and  C_51 
REMARK   23  A    between atoms: C_51  and  C_52 
REMARK   24  A    between atoms: C_52  and  O_54 
REMARK   25  A    between atoms: C_55  and  C_56 
REMARK   26  A    between atoms: C_56  and  C_57 
REMARK   27  A    between atoms: C_57  and  C_58 
REMARK   28  A    between atoms: C_58  and  O_60 
ROOT
ATOM      1  O   UNK d   0      13.846  16.351 -10.628  0.00  0.00    -0.650 OA
ATOM      2  C   UNK d   0      14.967  16.888 -10.488  0.00  0.00     0.139 C 
ENDROOT
BRANCH   2   3
ATOM      3  O   UNK d   0      16.046  16.384 -11.173  0.00  0.00    -0.776 OA
ATOM      4  H   UNK d   0      16.515  15.530 -10.865  0.00  0.00     0.167 HD
ENDBRANCH   2   3
BRANCH   2   5
ATOM      5  C   UNK d   0      15.126  18.063  -9.584  0.00  0.00     0.115 C 
BRANCH   5   6
ATOM      6  C   UNK d   0      14.587  19.302 -10.246  0.00  0.00     0.052 C 
BRANCH   6   7
ATOM      7  C   UNK d   0      13.679  20.097  -9.340  0.00  0.00    -0.020 A 
ATOM      8  C   UNK d   0      12.400  19.915  -9.131  0.00  0.00    -0.011 A 
ATOM      9  C   UNK d   0      11.954  20.927  -8.189  0.00  0.00     0.067 A 
ATOM     10  C   UNK d   0      10.746  21.260  -7.556  0.00  0.00     0.062 C 
ATOM     11  N   UNK d   0      13.026  21.687  -7.880  0.00  0.00    -0.248 NA
ATOM     12  C   UNK d   0      10.570  22.106  -6.456  0.00  0.00     0.041 A 
ATOM     13  N   UNK d   0      11.118  23.300  -6.160  0.00  0.00    -0.355 N 
ATOM     14  C   UNK d   0       9.734  21.690  -5.404  0.00  0.00    -0.022 A 
ATOM     15  C   UNK d   0      10.657  23.648  -4.943  0.00  0.00     0.042 A 
ATOM     16  H   UNK d   0      11.802  23.894  -6.806  0.00  0.00     0.166 HD
ATOM     17  C   UNK d   0      10.910  24.796  -4.165  0.00  0.00     0.062 C 
ATOM     18  C   UNK d   0       9.787  22.663  -4.438  0.00  0.00    -0.013 A 
ATOM     19  C   UNK d   0      12.105  25.419  -3.911  0.00  0.00     0.067 A 
ATOM     20  N   UNK d   0      13.156  25.030  -4.637  0.00  0.00    -0.248 NA
ATOM     21  C   UNK d   0      12.573  26.446  -2.995  0.00  0.00    -0.011 A 
ATOM     22  C   UNK d   0      14.278  25.728  -4.262  0.00  0.00     0.066 A 
ATOM     23  C   UNK d   0      15.441  25.449  -4.965  0.00  0.00     0.062 C 
ATOM     24  C   UNK d   0      13.847  26.619  -3.203  0.00  0.00    -0.020 A 
ATOM     25  C   UNK d   0      15.593  24.605  -6.076  0.00  0.00     0.041 A 
ATOM     26  N   UNK d   0      15.061  23.412  -6.363  0.00  0.00    -0.355 N 
ATOM     27  C   UNK d   0      16.429  25.026  -7.133  0.00  0.00    -0.022 A 
ATOM     28  C   UNK d   0      15.526  23.058  -7.572  0.00  0.00     0.042 A 
ATOM     29  H   UNK d   0      14.382  22.812  -5.708  0.00  0.00     0.166 HD
ATOM     30  C   UNK d   0      15.290  21.916  -8.354  0.00  0.00     0.062 C 
ATOM     31  C   UNK d   0      16.392  24.053  -8.084  0.00  0.00    -0.013 A 
ATOM     32  C   UNK d   0      14.095  21.239  -8.539  0.00  0.00     0.066 A 
BRANCH   8  33
ATOM     33  C   UNK d   0      11.543  18.879  -9.738  0.00  0.00     0.151 C 
BRANCH  33  34
ATOM     34  C   UNK d   0      10.117  19.055  -9.411  0.00  0.00     0.143 C 
ATOM     35  O   UNK d   0       9.404  19.828 -10.067  0.00  0.00    -0.650 OA
BRANCH  34  36
ATOM     36  O   UNK d   0       9.572  18.352  -8.361  0.00  0.00    -0.776 OA
ATOM     37  H   UNK d   0       9.118  18.834  -7.574  0.00  0.00     0.167 HD
ENDBRANCH  34  36
ENDBRANCH  33  34
ENDBRANCH   8  33
BRANCH  31  38
ATOM     38  C   UNK d   0      17.123  24.071  -9.406  0.00  0.00     0.151 C 
BRANCH  38  39
ATOM     39  C   UNK d   0      18.326  23.266  -9.394  0.00  0.00     0.143 C 
ATOM     40  O   UNK d   0      18.320  22.055  -9.676  0.00  0.00    -0.650 OA
BRANCH  39  41
ATOM     41  O   UNK d   0      19.543  23.857  -9.055  0.00  0.00    -0.776 OA
ATOM     42  H   UNK d   0      20.318  23.727  -9.712  0.00  0.00     0.167 HD
ENDBRANCH  39  41
ENDBRANCH  38  39
ENDBRANCH  31  38
BRANCH  27  43
ATOM     43  C   UNK d   0      17.245  26.288  -7.266  0.00  0.00     0.052 C 
BRANCH  43  44
ATOM     44  C   UNK d   0      18.658  26.130  -6.808  0.00  0.00     0.115 C 
BRANCH  44  45
ATOM     45  C   UNK d   0      18.900  27.196  -5.802  0.00  0.00     0.139 C 
ATOM     46  O   UNK d   0      18.586  26.965  -4.608  0.00  0.00    -0.650 OA
BRANCH  45  47
ATOM     47  O   UNK d   0      19.455  28.416  -6.124  0.00  0.00    -0.776 OA
ATOM     48  H   UNK d   0      18.887  29.238  -6.387  0.00  0.00     0.167 HD
ENDBRANCH  45  47
ENDBRANCH  44  45
ENDBRANCH  43  44
ENDBRANCH  27  43
BRANCH  24  49
ATOM     49  C   UNK d   0      14.713  27.594  -2.519  0.00  0.00     0.052 C 
BRANCH  49  50
ATOM     50  C   UNK d   0      15.403  26.949  -1.344  0.00  0.00     0.115 C 
BRANCH  50  51
ATOM     51  C   UNK d   0      16.740  26.416  -1.568  0.00  0.00     0.139 C 
ATOM     52  O   UNK d   0      16.987  25.187  -1.567  0.00  0.00    -0.650 OA
BRANCH  51  53
ATOM     53  O   UNK d   0      17.797  27.286  -1.791  0.00  0.00    -0.776 OA
ATOM     54  H   UNK d   0      17.961  28.016  -1.120  0.00  0.00     0.167 HD
ENDBRANCH  51  53
ENDBRANCH  50  51
ENDBRANCH  49  50
ENDBRANCH  24  49
BRANCH  21  55
ATOM     55  C   UNK d   0      11.698  27.150  -2.012  0.00  0.00     0.151 C 
BRANCH  55  56
ATOM     56  C   UNK d   0      10.272  26.880  -2.250  0.00  0.00     0.143 C 
ATOM     57  O   UNK d   0       9.592  27.524  -3.073  0.00  0.00    -0.650 OA
BRANCH  56  58
ATOM     58  O   UNK d   0       9.673  25.858  -1.516  0.00  0.00    -0.776 OA
ATOM     59  H   UNK d   0       8.815  25.461  -1.940  0.00  0.00     0.167 HD
ENDBRANCH  56  58
ENDBRANCH  55  56
ENDBRANCH  21  55
BRANCH  18  60
ATOM     60  C   UNK d   0       9.043  22.621  -3.126  0.00  0.00     0.151 C 
BRANCH  60  61
ATOM     61  C   UNK d   0       9.876  21.821  -2.215  0.00  0.00     0.143 C 
ATOM     62  O   UNK d   0      11.101  21.701  -2.243  0.00  0.00    -0.650 OA
BRANCH  61  63
ATOM     63  O   UNK d   0       9.168  21.125  -1.205  0.00  0.00    -0.776 OA
ATOM     64  H   UNK d   0       8.835  20.189  -1.357  0.00  0.00     0.167 HD
ENDBRANCH  61  63
ENDBRANCH  60  61
ENDBRANCH  18  60
BRANCH  14  65
ATOM     65  C   UNK d   0       8.822  20.502  -5.287  0.00  0.00     0.052 C 
BRANCH  65  66
ATOM     66  C   UNK d   0       7.381  20.867  -5.346  0.00  0.00     0.115 C 
BRANCH  66  67
ATOM     67  C   UNK d   0       6.382  19.840  -5.248  0.00  0.00     0.139 C 
ATOM     68  O   UNK d   0       5.209  20.163  -4.832  0.00  0.00    -0.650 OA
BRANCH  67  69
ATOM     69  O   UNK d   0       6.518  18.486  -5.553  0.00  0.00    -0.776 OA
ATOM     70  H   UNK d   0       6.366  18.232  -6.540  0.00  0.00     0.167 HD
ENDBRANCH  67  69
ENDBRANCH  66  67
ENDBRANCH  65  66
ENDBRANCH  14  65
ENDBRANCH   6   7
ENDBRANCH   5   6
ENDBRANCH   2   5
TORSDOF 28
ENDMDL
MODEL 3
REMARK VINA RESULT:      -9.3      2.024      8.292
REMARK  28 active torsions:
REMARK  status: ('A' for Active; 'I' for Inactive)
REMARK    1  A    between atoms: C_2  and  O_3 
REMARK    2  A    between atoms: C_2  and  C_4 
REMARK    3  A    between atoms: C_4  and  C_5 
REMARK    4  A    between atoms: C_5  and  C_6 
REMARK    5  A    between atoms: C_7  and  C_8 
REMARK    6  A    between atoms: C_8  and  C_9 
REMARK    7  A    between atoms: C_9  and  O_11 
REMARK    8  A    between atoms: C_28  and  C_29 
REMARK    9  A    between atoms: C_29  and  C_30 
REMARK   10  A    between atoms: C_30  and  O_32 
REMARK   11  A    between atoms: C_33  and  C_34 
REMARK   12  A    between atoms: C_34  and  C_35 
REMARK   13  A    between atoms: C_35  and  C_36 
REMARK   14  A    between atoms: C_36  and  O_38 
REMARK   15  A    between atoms: C_39  and  C_40 
REMARK   16  A    between atoms: C_40  and  C_41 
REMARK   17  A    between atoms: C_41  and  C_42 
REMARK   18  A    between atoms: C_42  and  O_44 
REMARK   19  A    between atoms: C_45  and  C_46 
REMARK   20  A    between atoms: C_46  and  C_47 
REMARK   21  A    between atoms: C_47  and  O_49 
REMARK   22  A    between atoms: C_50  and  C_51 
REMARK   23  A    between atoms: C_51  and  C_52 
REMARK   24  A    between atoms: C_52  and  O_54 
REMARK   25  A    between atoms: C_55  and  C_56 
REMARK   26  A    between atoms: C_56  and  C_57 
REMARK   27  A    between atoms: C_57  and  C_58 
REMARK   28  A    between atoms: C_58  and  O_60 
ROOT
ATOM      1  O   UNK d   0       7.621  19.143  -9.386  0.00  0.00    -0.650 OA
ATOM      2  C   UNK d   0       8.374  18.362  -8.764  0.00  0.00     0.139 C 
ENDROOT
BRANCH   2   3
ATOM      3  O   UNK d   0       7.976  17.873  -7.543  0.00  0.00    -0.776 OA
ATOM      4  H   UNK d   0       8.413  17.041  -7.140  0.00  0.00     0.167 HD
ENDBRANCH   2   3
BRANCH   2   5
ATOM      5  C   UNK d   0       9.689  17.969  -9.344  0.00  0.00     0.115 C 
BRANCH   5   6
ATOM      6  C   UNK d   0      10.264  19.107 -10.143  0.00  0.00     0.052 C 
BRANCH   6   7
ATOM      7  C   UNK d   0      11.315  19.878  -9.382  0.00  0.00    -0.020 A 
ATOM      8  C   UNK d   0      12.603  19.912  -9.611  0.00  0.00    -0.011 A 
ATOM      9  C   UNK d   0      13.210  20.781  -8.617  0.00  0.00     0.067 A 
ATOM     10  C   UNK d   0      14.504  21.241  -8.330  0.00  0.00     0.062 C 
ATOM     11  N   UNK d   0      12.219  21.228  -7.818  0.00  0.00    -0.248 NA
ATOM     12  C   UNK d   0      14.859  22.304  -7.491  0.00  0.00     0.041 A 
ATOM     13  N   UNK d   0      14.401  22.666  -6.278  0.00  0.00    -0.355 N 
ATOM     14  C   UNK d   0      15.814  23.234  -7.938  0.00  0.00    -0.022 A 
ATOM     15  C   UNK d   0      15.035  23.807  -5.947  0.00  0.00     0.042 A 
ATOM     16  H   UNK d   0      13.658  22.116  -5.659  0.00  0.00     0.166 HD
ATOM     17  C   UNK d   0      14.933  24.607  -4.791  0.00  0.00     0.062 C 
ATOM     18  C   UNK d   0      15.930  24.194  -6.964  0.00  0.00    -0.013 A 
ATOM     19  C   UNK d   0      13.808  25.018  -4.124  0.00  0.00     0.067 A 
ATOM     20  N   UNK d   0      12.654  24.444  -4.473  0.00  0.00    -0.248 NA
ATOM     21  C   UNK d   0      13.507  25.984  -3.081  0.00  0.00    -0.011 A 
ATOM     22  C   UNK d   0      11.620  24.965  -3.734  0.00  0.00     0.066 A 
ATOM     23  C   UNK d   0      10.363  24.427  -3.969  0.00  0.00     0.062 C 
ATOM     24  C   UNK d   0      12.224  25.951  -2.860  0.00  0.00    -0.020 A 
ATOM     25  C   UNK d   0      10.030  23.351  -4.807  0.00  0.00     0.041 A 
ATOM     26  N   UNK d   0      10.474  22.999  -6.019  0.00  0.00    -0.355 N 
ATOM     27  C   UNK d   0       9.074  22.415  -4.355  0.00  0.00    -0.022 A 
ATOM     28  C   UNK d   0       9.836  21.867  -6.355  0.00  0.00     0.042 A 
ATOM     29  H   UNK d   0      11.213  23.559  -6.644  0.00  0.00     0.166 HD
ATOM     30  C   UNK d   0       9.921  21.066  -7.505  0.00  0.00     0.062 C 
ATOM     31  C   UNK d   0       8.946  21.473  -5.328  0.00  0.00    -0.013 A 
ATOM     32  C   UNK d   0      11.054  20.723  -8.225  0.00  0.00     0.066 A 
BRANCH   8  33
ATOM     33  C   UNK d   0      13.330  19.200 -10.678  0.00  0.00     0.151 C 
BRANCH  33  34
ATOM     34  C   UNK d   0      13.955  17.951 -10.208  0.00  0.00     0.143 C 
ATOM     35  O   UNK d   0      13.329  17.157  -9.491  0.00  0.00    -0.650 OA
BRANCH  34  36
ATOM     36  O   UNK d   0      15.251  17.665 -10.569  0.00  0.00    -0.776 OA
ATOM     37  H   UNK d   0      16.049  18.084 -10.072  0.00  0.00     0.167 HD
ENDBRANCH  34  36
ENDBRANCH  33  34
ENDBRANCH   8  33
BRANCH  31  38
ATOM     38  C   UNK d   0       8.043  20.262  -5.283  0.00  0.00     0.151 C 
BRANCH  38  39
ATOM     39  C   UNK d   0       6.682  20.561  -5.675  0.00  0.00     0.143 C 
ATOM     40  O   UNK d   0       5.921  21.244  -4.968  0.00  0.00    -0.650 OA
BRANCH  39  41
ATOM     41  O   UNK d   0       6.194  20.073  -6.887  0.00  0.00    -0.776 OA
ATOM     42  H   UNK d   0       6.024  19.064  -6.944  0.00  0.00     0.167 HD
ENDBRANCH  39  41
ENDBRANCH  38  39
ENDBRANCH  31  38
BRANCH  27  43
ATOM     43  C   UNK d   0       8.295  22.388  -3.064  0.00  0.00     0.052 C 
BRANCH  43  44
ATOM     44  C   UNK d   0       9.003  21.668  -1.962  0.00  0.00     0.115 C 
BRANCH  44  45
ATOM     45  C   UNK d   0       7.979  20.848  -1.265  0.00  0.00     0.139 C 
ATOM     46  O   UNK d   0       7.200  20.153  -1.963  0.00  0.00    -0.650 OA
BRANCH  45  47
ATOM     47  O   UNK d   0       7.854  20.817   0.108  0.00  0.00    -0.776 OA
ATOM     48  H   UNK d   0       7.617  21.651   0.668  0.00  0.00     0.167 HD
ENDBRANCH  45  47
ENDBRANCH  44  45
ENDBRANCH  43  44
ENDBRANCH  27  43
BRANCH  24  49
ATOM     49  C   UNK d   0      11.495  26.742  -1.854  0.00  0.00     0.052 C 
BRANCH  49  50
ATOM     50  C   UNK d   0      10.519  27.674  -2.526  0.00  0.00     0.115 C 
BRANCH  50  51
ATOM     51  C   UNK d   0       9.103  27.458  -2.260  0.00  0.00     0.139 C 
ATOM     52  O   UNK d   0       8.354  26.835  -3.049  0.00  0.00    -0.650 OA
BRANCH  51  53
ATOM     53  O   UNK d   0       8.541  27.956  -1.095  0.00  0.00    -0.776 OA
ATOM     54  H   UNK d   0       7.556  27.822  -0.947  0.00  0.00     0.167 HD
ENDBRANCH  51  53
ENDBRANCH  50  51
ENDBRANCH  49  50
ENDBRANCH  24  49
BRANCH  21  55
ATOM     55  C   UNK d   0      14.532  26.836  -2.410  0.00  0.00     0.151 C 
BRANCH  55  56
ATOM     56  C   UNK d   0      14.569  28.197  -2.967  0.00  0.00     0.143 C 
ATOM     57  O   UNK d   0      14.162  28.468  -4.114  0.00  0.00    -0.650 OA
BRANCH  56  58
ATOM     58  O   UNK d   0      15.084  29.213  -2.164  0.00  0.00    -0.776 OA
ATOM     59  H   UNK d   0      16.094  29.130  -1.948  0.00  0.00     0.167 HD
ENDBRANCH  56  58
ENDBRANCH  55  56
ENDBRANCH  21  55
BRANCH  18  60
ATOM     60  C   UNK d   0      16.843  25.393  -7.035  0.00  0.00     0.151 C 
BRANCH  60  61
ATOM     61  C   UNK d   0      15.989  26.529  -7.412  0.00  0.00     0.143 C 
ATOM     62  O   UNK d   0      14.902  26.482  -7.988  0.00  0.00    -0.650 OA
BRANCH  61  63
ATOM     63  O   UNK d   0      16.496  27.805  -7.064  0.00  0.00    -0.776 OA
ATOM     64  H   UNK d   0      16.121  28.641  -7.476  0.00  0.00     0.167 HD
ENDBRANCH  61  63
ENDBRANCH  60  61
ENDBRANCH  18  60
BRANCH  14  65
ATOM     65  C   UNK d   0      16.689  23.232  -9.159  0.00  0.00     0.052 C 
BRANCH  65  66
ATOM     66  C   UNK d   0      17.887  22.361  -9.015  0.00  0.00     0.115 C 
BRANCH  66  67
ATOM     67  C   UNK d   0      18.016  21.186  -9.830  0.00  0.00     0.139 C 
ATOM     68  O   UNK d   0      18.874  21.194 -10.787  0.00  0.00    -0.650 OA
BRANCH  67  69
ATOM     69  O   UNK d   0      17.307  19.990  -9.720  0.00  0.00    -0.776 OA
ATOM     70  H   UNK d   0      16.705  19.751 -10.520  0.00  0.00     0.167 HD
ENDBRANCH  67  69
ENDBRANCH  66  67
ENDBRANCH  65  66
ENDBRANCH  14  65
ENDBRANCH   6   7
ENDBRANCH   5   6
ENDBRANCH   2   5
TORSDOF 28
ENDMDL
MODEL 4
REMARK VINA RESULT:      -8.7      1.862     10.424
REMARK  28 active torsions:
REMARK  status: ('A' for Active; 'I' for Inactive)
REMARK    1  A    between atoms: C_2  and  O_3 
REMARK    2  A    between atoms: C_2  and  C_4 
REMARK    3  A    between atoms: C_4  and  C_5 
REMARK    4  A    between atoms: C_5  and  C_6 
REMARK    5  A    between atoms: C_7  and  C_8 
REMARK    6  A    between atoms: C_8  and  C_9 
REMARK    7  A    between atoms: C_9  and  O_11 
REMARK    8  A    between atoms: C_28  and  C_29 
REMARK    9  A    between atoms: C_29  and  C_30 
REMARK   10  A    between atoms: C_30  and  O_32 
REMARK   11  A    between atoms: C_33  and  C_34 
REMARK   12  A    between atoms: C_34  and  C_35 
REMARK   13  A    between atoms: C_35  and  C_36 
REMARK   14  A    between atoms: C_36  and  O_38 
REMARK   15  A    between atoms: C_39  and  C_40 
REMARK   16  A    between atoms: C_40  and  C_41 
REMARK   17  A    between atoms: C_41  and  C_42 
REMARK   18  A    between atoms: C_42  and  O_44 
REMARK   19  A    between atoms: C_45  and  C_46 
REMARK   20  A    between atoms: C_46  and  C_47 
REMARK   21  A    between atoms: C_47  and  O_49 
REMARK   22  A    between atoms: C_50  and  C_51 
REMARK   23  A    between atoms: C_51  and  C_52 
REMARK   24  A    between atoms: C_52  and  O_54 
REMARK   25  A    between atoms: C_55  and  C_56 
REMARK   26  A    between atoms: C_56  and  C_57 
REMARK   27  A    between atoms: C_57  and  C_58 
REMARK   28  A    between atoms: C_58  and  O_60 
ROOT
ATOM      1  O   UNK d   0      16.160  17.654 -10.496  0.00  0.00    -0.650 OA
ATOM      2  C   UNK d   0      16.693  18.065  -9.441  0.00  0.00     0.139 C 
ENDROOT
BRANCH   2   3
ATOM      3  O   UNK d   0      17.933  17.593  -9.085  0.00  0.00    -0.776 OA
ATOM      4  H   UNK d   0      18.712  17.604  -9.747  0.00  0.00     0.167 HD
ENDBRANCH   2   3
BRANCH   2   5
ATOM      5  C   UNK d   0      15.985  19.057  -8.583  0.00  0.00     0.115 C 
BRANCH   5   6
ATOM      6  C   UNK d   0      15.236  20.042  -9.439  0.00  0.00     0.052 C 
BRANCH   6   7
ATOM      7  C   UNK d   0      14.032  20.624  -8.738  0.00  0.00    -0.020 A 
ATOM      8  C   UNK d   0      12.774  20.316  -8.925  0.00  0.00    -0.011 A 
ATOM      9  C   UNK d   0      11.977  21.141  -8.033  0.00  0.00     0.067 A 
ATOM     10  C   UNK d   0      10.613  21.283  -7.734  0.00  0.00     0.062 C 
ATOM     11  N   UNK d   0      12.831  21.925  -7.343  0.00  0.00    -0.248 NA
ATOM     12  C   UNK d   0      10.050  21.941  -6.635  0.00  0.00     0.041 A 
ATOM     13  N   UNK d   0      10.357  23.116  -6.053  0.00  0.00    -0.355 N 
ATOM     14  C   UNK d   0       9.013  21.312  -5.923  0.00  0.00    -0.022 A 
ATOM     15  C   UNK d   0       9.547  23.245  -4.985  0.00  0.00     0.042 A 
ATOM     16  H   UNK d   0      11.118  23.849  -6.401  0.00  0.00     0.166 HD
ATOM     17  C   UNK d   0       9.447  24.279  -4.034  0.00  0.00     0.062 C 
ATOM     18  C   UNK d   0       8.691  22.133  -4.870  0.00  0.00    -0.013 A 
ATOM     19  C   UNK d   0      10.449  24.947  -3.377  0.00  0.00     0.067 A 
ATOM     20  N   UNK d   0      11.695  24.751  -3.816  0.00  0.00    -0.248 NA
ATOM     21  C   UNK d   0      10.531  25.859  -2.249  0.00  0.00    -0.011 A 
ATOM     22  C   UNK d   0      12.586  25.468  -3.055  0.00  0.00     0.066 A 
ATOM     23  C   UNK d   0      13.920  25.386  -3.428  0.00  0.00     0.062 C 
ATOM     24  C   UNK d   0      11.785  26.157  -2.063  0.00  0.00    -0.020 A 
ATOM     25  C   UNK d   0      14.463  24.730  -4.543  0.00  0.00     0.041 A 
ATOM     26  N   UNK d   0      14.168  23.555  -5.113  0.00  0.00    -0.355 N 
ATOM     27  C   UNK d   0      15.501  25.364  -5.260  0.00  0.00    -0.022 A 
ATOM     28  C   UNK d   0      14.980  23.421  -6.173  0.00  0.00     0.042 A 
ATOM     29  H   UNK d   0      13.411  22.815  -4.756  0.00  0.00     0.166 HD
ATOM     30  C   UNK d   0      15.097  22.393  -7.122  0.00  0.00     0.062 C 
ATOM     31  C   UNK d   0      15.833  24.543  -6.294  0.00  0.00    -0.013 A 
ATOM     32  C   UNK d   0      14.082  21.662  -7.720  0.00  0.00     0.066 A 
BRANCH   8  33
ATOM     33  C   UNK d   0      12.238  19.319  -9.871  0.00  0.00     0.151 C 
BRANCH  33  34
ATOM     34  C   UNK d   0      12.069  17.988  -9.262  0.00  0.00     0.143 C 
ATOM     35  O   UNK d   0      12.968  17.137  -9.332  0.00  0.00    -0.650 OA
BRANCH  34  36
ATOM     36  O   UNK d   0      10.897  17.688  -8.607  0.00  0.00    -0.776 OA
ATOM     37  H   UNK d   0      10.035  18.221  -8.785  0.00  0.00     0.167 HD
ENDBRANCH  34  36
ENDBRANCH  33  34
ENDBRANCH   8  33
BRANCH  31  38
ATOM     38  C   UNK d   0      16.888  24.812  -7.341  0.00  0.00     0.151 C 
BRANCH  38  39
ATOM     39  C   UNK d   0      16.659  26.044  -8.066  0.00  0.00     0.143 C 
ATOM     40  O   UNK d   0      17.588  26.794  -8.414  0.00  0.00    -0.650 OA
BRANCH  39  41
ATOM     41  O   UNK d   0      15.356  26.416  -8.392  0.00  0.00    -0.776 OA
ATOM     42  H   UNK d   0      14.618  26.134  -7.739  0.00  0.00     0.167 HD
ENDBRANCH  39  41
ENDBRANCH  38  39
ENDBRANCH  31  38
BRANCH  27  43
ATOM     43  C   UNK d   0      16.172  26.690  -5.003  0.00  0.00     0.052 C 
BRANCH  43  44
ATOM     44  C   UNK d   0      17.543  26.556  -4.424  0.00  0.00     0.115 C 
BRANCH  44  45
ATOM     45  C   UNK d   0      17.388  26.613  -2.947  0.00  0.00     0.139 C 
ATOM     46  O   UNK d   0      17.586  27.713  -2.374  0.00  0.00    -0.650 OA
BRANCH  45  47
ATOM     47  O   UNK d   0      17.033  25.518  -2.190  0.00  0.00    -0.776 OA
ATOM     48  H   UNK d   0      16.432  24.759  -2.549  0.00  0.00     0.167 HD
ENDBRANCH  45  47
ENDBRANCH  44  45
ENDBRANCH  43  44
ENDBRANCH  27  43
BRANCH  24  49
ATOM     49  C   UNK d   0      12.317  27.083  -1.048  0.00  0.00     0.052 C 
BRANCH  49  50
ATOM     50  C   UNK d   0      13.515  27.821  -1.588  0.00  0.00     0.115 C 
BRANCH  50  51
ATOM     51  C   UNK d   0      14.507  28.274  -0.622  0.00  0.00     0.139 C 
ATOM     52  O   UNK d   0      14.399  29.356   0.002  0.00  0.00    -0.650 OA
BRANCH  51  53
ATOM     53  O   UNK d   0      15.625  27.494  -0.371  0.00  0.00    -0.776 OA
ATOM     54  H   UNK d   0      16.386  27.905   0.141  0.00  0.00     0.167 HD
ENDBRANCH  51  53
ENDBRANCH  50  51
ENDBRANCH  49  50
ENDBRANCH  24  49
BRANCH  21  55
ATOM     55  C   UNK d   0       9.348  26.342  -1.477  0.00  0.00     0.151 C 
BRANCH  55  56
ATOM     56  C   UNK d   0       8.805  27.594  -2.025  0.00  0.00     0.143 C 
ATOM     57  O   UNK d   0       8.422  28.536  -1.304  0.00  0.00    -0.650 OA
BRANCH  56  58
ATOM     58  O   UNK d   0       8.723  27.714  -3.411  0.00  0.00    -0.776 OA
ATOM     59  H   UNK d   0       8.215  26.946  -3.886  0.00  0.00     0.167 HD
ENDBRANCH  56  58
ENDBRANCH  55  56
ENDBRANCH  21  55
BRANCH  18  60
ATOM     60  C   UNK d   0       7.629  21.840  -3.840  0.00  0.00     0.151 C 
BRANCH  60  61
ATOM     61  C   UNK d   0       8.342  21.326  -2.660  0.00  0.00     0.143 C 
ATOM     62  O   UNK d   0       9.548  21.408  -2.428  0.00  0.00    -0.650 OA
BRANCH  61  63
ATOM     63  O   UNK d   0       7.530  20.671  -1.703  0.00  0.00    -0.776 OA
ATOM     64  H   UNK d   0       6.620  20.322  -1.947  0.00  0.00     0.167 HD
ENDBRANCH  61  63
ENDBRANCH  60  61
ENDBRANCH  18  60
BRANCH  14  65
ATOM     65  C   UNK d   0       8.245  20.054  -6.215  0.00  0.00     0.052 C 
BRANCH  65  66
ATOM     66  C   UNK d   0       7.813  19.953  -7.634  0.00  0.00     0.115 C 
BRANCH  66  67
ATOM     67  C   UNK d   0       8.096  18.760  -8.381  0.00  0.00     0.139 C 
ATOM     68  O   UNK d   0       8.442  18.875  -9.614  0.00  0.00    -0.650 OA
BRANCH  67  69
ATOM     69  O   UNK d   0       8.042  17.440  -7.933  0.00  0.00    -0.776 OA
ATOM     70  H   UNK d   0       8.859  17.116  -7.395  0.00  0.00     0.167 HD
ENDBRANCH  67  69
ENDBRANCH  66  67
ENDBRANCH  65  66
ENDBRANCH  14  65
ENDBRANCH   6   7
ENDBRANCH   5   6
ENDBRANCH   2   5
TORSDOF 28
ENDMDL
MODEL 5
REMARK VINA RESULT:      -8.6      1.718      8.227
REMARK  28 active torsions:
REMARK  status: ('A' for Active; 'I' for Inactive)
REMARK    1  A    between atoms: C_2  and  O_3 
REMARK    2  A    between atoms: C_2  and  C_4 
REMARK    3  A    between atoms: C_4  and  C_5 
REMARK    4  A    between atoms: C_5  and  C_6 
REMARK    5  A    between atoms: C_7  and  C_8 
REMARK    6  A    between atoms: C_8  and  C_9 
REMARK    7  A    between atoms: C_9  and  O_11 
REMARK    8  A    between atoms: C_28  and  C_29 
REMARK    9  A    between atoms: C_29  and  C_30 
REMARK   10  A    between atoms: C_30  and  O_32 
REMARK   11  A    between atoms: C_33  and  C_34 
REMARK   12  A    between atoms: C_34  and  C_35 
REMARK   13  A    between atoms: C_35  and  C_36 
REMARK   14  A    between atoms: C_36  and  O_38 
REMARK   15  A    between atoms: C_39  and  C_40 
REMARK   16  A    between atoms: C_40  and  C_41 
REMARK   17  A    between atoms: C_41  and  C_42 
REMARK   18  A    between atoms: C_42  and  O_44 
REMARK   19  A    between atoms: C_45  and  C_46 
REMARK   20  A    between atoms: C_46  and  C_47 
REMARK   21  A    between atoms: C_47  and  O_49 
REMARK   22  A    between atoms: C_50  and  C_51 
REMARK   23  A    between atoms: C_51  and  C_52 
REMARK   24  A    between atoms: C_52  and  O_54 
REMARK   25  A    between atoms: C_55  and  C_56 
REMARK   26  A    between atoms: C_56  and  C_57 
REMARK   27  A    between atoms: C_57  and  C_58 
REMARK   28  A    between atoms: C_58  and  O_60 
ROOT
ATOM      1  O   UNK d   0       7.690  18.918  -8.798  0.00  0.00    -0.650 OA
ATOM      2  C   UNK d   0       8.739  18.986  -8.120  0.00  0.00     0.139 C 
ENDROOT
BRANCH   2   3
ATOM      3  O   UNK d   0       8.655  19.247  -6.774  0.00  0.00    -0.776 OA
ATOM      4  H   UNK d   0       8.354  20.162  -6.432  0.00  0.00     0.167 HD
ENDBRANCH   2   3
BRANCH   2   5
ATOM      5  C   UNK d   0      10.065  18.785  -8.770  0.00  0.00     0.115 C 
BRANCH   5   6
ATOM      6  C   UNK d   0      10.465  20.025  -9.523  0.00  0.00     0.052 C 
BRANCH   6   7
ATOM      7  C   UNK d   0      11.744  20.635  -9.001  0.00  0.00    -0.020 A 
ATOM      8  C   UNK d   0      12.958  20.452  -9.453  0.00  0.00    -0.011 A 
ATOM      9  C   UNK d   0      13.863  21.237  -8.629  0.00  0.00     0.067 A 
ATOM     10  C   UNK d   0      15.243  21.488  -8.598  0.00  0.00     0.062 C 
ATOM     11  N   UNK d   0      13.114  21.861  -7.696  0.00  0.00    -0.248 NA
ATOM     12  C   UNK d   0      15.904  22.500  -7.895  0.00  0.00     0.041 A 
ATOM     13  N   UNK d   0      15.735  22.965  -6.642  0.00  0.00    -0.355 N 
ATOM     14  C   UNK d   0      16.896  23.250  -8.553  0.00  0.00    -0.022 A 
ATOM     15  C   UNK d   0      16.589  23.996  -6.491  0.00  0.00     0.042 A 
ATOM     16  H   UNK d   0      15.041  22.560  -5.874  0.00  0.00     0.166 HD
ATOM     17  C   UNK d   0      16.823  24.832  -5.382  0.00  0.00     0.062 C 
ATOM     18  C   UNK d   0      17.333  24.205  -7.668  0.00  0.00    -0.013 A 
ATOM     19  C   UNK d   0      15.915  25.440  -4.553  0.00  0.00     0.067 A 
ATOM     20  N   UNK d   0      14.642  25.051  -4.662  0.00  0.00    -0.248 NA
ATOM     21  C   UNK d   0      15.961  26.469  -3.528  0.00  0.00    -0.011 A 
ATOM     22  C   UNK d   0      13.852  25.753  -3.785  0.00  0.00     0.066 A 
ATOM     23  C   UNK d   0      12.505  25.422  -3.767  0.00  0.00     0.062 C 
ATOM     24  C   UNK d   0      14.750  26.651  -3.086  0.00  0.00    -0.020 A 
ATOM     25  C   UNK d   0      11.863  24.393  -4.473  0.00  0.00     0.041 A 
ATOM     26  N   UNK d   0      12.021  23.940  -5.722  0.00  0.00    -0.355 N 
ATOM     27  C   UNK d   0      10.871  23.637  -3.810  0.00  0.00    -0.022 A 
ATOM     28  C   UNK d   0      11.164  22.918  -5.878  0.00  0.00     0.042 A 
ATOM     29  H   UNK d   0      12.712  24.355  -6.497  0.00  0.00     0.166 HD
ATOM     30  C   UNK d   0      10.914  22.083  -6.979  0.00  0.00     0.062 C 
ATOM     31  C   UNK d   0      10.424  22.702  -4.692  0.00  0.00    -0.013 A 
ATOM     32  C   UNK d   0      11.831  21.541  -7.866  0.00  0.00     0.066 A 
BRANCH   8  33
ATOM     33  C   UNK d   0      13.361  19.602 -10.589  0.00  0.00     0.151 C 
BRANCH  33  34
ATOM     34  C   UNK d   0      13.801  18.260 -10.170  0.00  0.00     0.143 C 
ATOM     35  O   UNK d   0      14.863  17.778 -10.589  0.00  0.00    -0.650 OA
BRANCH  34  36
ATOM     36  O   UNK d   0      13.020  17.533  -9.302  0.00  0.00    -0.776 OA
ATOM     37  H   UNK d   0      13.222  16.544  -9.100  0.00  0.00     0.167 HD
ENDBRANCH  34  36
ENDBRANCH  33  34
ENDBRANCH   8  33
BRANCH  31  38
ATOM     38  C   UNK d   0       9.367  21.656  -4.423  0.00  0.00     0.151 C 
BRANCH  38  39
ATOM     39  C   UNK d   0       8.057  22.047  -4.898  0.00  0.00     0.143 C 
ATOM     40  O   UNK d   0       7.164  21.217  -5.145  0.00  0.00    -0.650 OA
BRANCH  39  41
ATOM     41  O   UNK d   0       7.771  23.398  -5.089  0.00  0.00    -0.776 OA
ATOM     42  H   UNK d   0       6.952  23.771  -4.598  0.00  0.00     0.167 HD
ENDBRANCH  39  41
ENDBRANCH  38  39
ENDBRANCH  31  38
BRANCH  27  43
ATOM     43  C   UNK d   0      10.344  23.772  -2.403  0.00  0.00     0.052 C 
BRANCH  43  44
ATOM     44  C   UNK d   0       9.238  24.769  -2.279  0.00  0.00     0.115 C 
BRANCH  44  45
ATOM     45  C   UNK d   0       9.880  26.107  -2.200  0.00  0.00     0.139 C 
ATOM     46  O   UNK d   0       9.445  27.017  -2.948  0.00  0.00    -0.650 OA
BRANCH  45  47
ATOM     47  O   UNK d   0      10.920  26.387  -1.341  0.00  0.00    -0.776 OA
ATOM     48  H   UNK d   0      11.109  25.832  -0.490  0.00  0.00     0.167 HD
ENDBRANCH  45  47
ENDBRANCH  44  45
ENDBRANCH  43  44
ENDBRANCH  27  43
BRANCH  24  49
ATOM     49  C   UNK d   0      14.347  27.577  -2.013  0.00  0.00     0.052 C 
BRANCH  49  50
ATOM     50  C   UNK d   0      14.835  28.971  -2.314  0.00  0.00     0.115 C 
BRANCH  50  51
ATOM     51  C   UNK d   0      14.647  29.979  -1.278  0.00  0.00     0.139 C 
ATOM     52  O   UNK d   0      14.429  29.684  -0.080  0.00  0.00    -0.650 OA
BRANCH  51  53
ATOM     53  O   UNK d   0      14.706  31.323  -1.611  0.00  0.00    -0.776 OA
ATOM     54  H   UNK d   0      15.589  31.701  -1.908  0.00  0.00     0.167 HD
ENDBRANCH  51  53
ENDBRANCH  50  51
ENDBRANCH  49  50
ENDBRANCH  24  49
BRANCH  21  55
ATOM     55  C   UNK d   0      17.211  27.160  -3.094  0.00  0.00     0.151 C 
BRANCH  55  56
ATOM     56  C   UNK d   0      17.595  26.797  -1.722  0.00  0.00     0.143 C 
ATOM     57  O   UNK d   0      18.298  27.531  -1.000  0.00  0.00    -0.650 OA
BRANCH  56  58
ATOM     58  O   UNK d   0      17.144  25.575  -1.224  0.00  0.00    -0.776 OA
ATOM     59  H   UNK d   0      17.079  25.523  -0.191  0.00  0.00     0.167 HD
ENDBRANCH  56  58
ENDBRANCH  55  56
ENDBRANCH  21  55
BRANCH  18  60
ATOM     60  C   UNK d   0      18.394  25.236  -7.963  0.00  0.00     0.151 C 
BRANCH  60  61
ATOM     61  C   UNK d   0      17.710  26.327  -8.674  0.00  0.00     0.143 C 
ATOM     62  O   UNK d   0      16.748  26.984  -8.276  0.00  0.00    -0.650 OA
BRANCH  61  63
ATOM     63  O   UNK d   0      18.234  26.634  -9.953  0.00  0.00    -0.776 OA
ATOM     64  H   UNK d   0      17.635  26.693 -10.758  0.00  0.00     0.167 HD
ENDBRANCH  61  63
ENDBRANCH  60  61
ENDBRANCH  18  60
BRANCH  14  65
ATOM     65  C   UNK d   0      17.525  23.072  -9.905  0.00  0.00     0.052 C 
BRANCH  65  66
ATOM     66  C   UNK d   0      18.846  22.391  -9.848  0.00  0.00     0.115 C 
BRANCH  66  67
ATOM     67  C   UNK d   0      19.040  21.155 -10.551  0.00  0.00     0.139 C 
ATOM     68  O   UNK d   0      19.718  21.170 -11.644  0.00  0.00    -0.650 OA
BRANCH  67  69
ATOM     69  O   UNK d   0      18.574  19.889 -10.196  0.00  0.00    -0.776 OA
ATOM     70  H   UNK d   0      19.046  19.094 -10.652  0.00  0.00     0.167 HD
ENDBRANCH  67  69
ENDBRANCH  66  67
ENDBRANCH  65  66
ENDBRANCH  14  65
ENDBRANCH   6   7
ENDBRANCH   5   6
ENDBRANCH   2   5
TORSDOF 28
ENDMDL
MODEL 6
REMARK VINA RESULT:      -7.8     27.719     31.006
REMARK  28 active torsions:
REMARK  status: ('A' for Active; 'I' for Inactive)
REMARK    1  A    between atoms: C_2  and  O_3 
REMARK    2  A    between atoms: C_2  and  C_4 
REMARK    3  A    between atoms: C_4  and  C_5 
REMARK    4  A    between atoms: C_5  and  C_6 
REMARK    5  A    between atoms: C_7  and  C_8 
REMARK    6  A    between atoms: C_8  and  C_9 
REMARK    7  A    between atoms: C_9  and  O_11 
REMARK    8  A    between atoms: C_28  and  C_29 
REMARK    9  A    between atoms: C_29  and  C_30 
REMARK   10  A    between atoms: C_30  and  O_32 
REMARK   11  A    between atoms: C_33  and  C_34 
REMARK   12  A    between atoms: C_34  and  C_35 
REMARK   13  A    between atoms: C_35  and  C_36 
REMARK   14  A    between atoms: C_36  and  O_38 
REMARK   15  A    between atoms: C_39  and  C_40 
REMARK   16  A    between atoms: C_40  and  C_41 
REMARK   17  A    between atoms: C_41  and  C_42 
REMARK   18  A    between atoms: C_42  and  O_44 
REMARK   19  A    between atoms: C_45  and  C_46 
REMARK   20  A    between atoms: C_46  and  C_47 
REMARK   21  A    between atoms: C_47  and  O_49 
REMARK   22  A    between atoms: C_50  and  C_51 
REMARK   23  A    between atoms: C_51  and  C_52 
REMARK   24  A    between atoms: C_52  and  O_54 
REMARK   25  A    between atoms: C_55  and  C_56 
REMARK   26  A    between atoms: C_56  and  C_57 
REMARK   27  A    between atoms: C_57  and  C_58 
REMARK   28  A    between atoms: C_58  and  O_60 
ROOT
ATOM      1  O   UNK d   0      13.031  -9.842   0.412  0.00  0.00    -0.650 OA
ATOM      2  C   UNK d   0      14.182  -9.367   0.526  0.00  0.00     0.139 C 
ENDROOT
BRANCH   2   3
ATOM      3  O   UNK d   0      15.177  -9.805  -0.314  0.00  0.00    -0.776 OA
ATOM      4  H   UNK d   0      14.956 -10.266  -1.199  0.00  0.00     0.167 HD
ENDBRANCH   2   3
BRANCH   2   5
ATOM      5  C   UNK d   0      14.468  -8.337   1.565  0.00  0.00     0.115 C 
BRANCH   5   6
ATOM      6  C   UNK d   0      15.954  -8.172   1.735  0.00  0.00     0.052 C 
BRANCH   6   7
ATOM      7  C   UNK d   0      16.320  -7.521   3.048  0.00  0.00    -0.020 A 
ATOM      8  C   UNK d   0      16.069  -7.961   4.254  0.00  0.00    -0.011 A 
ATOM      9  C   UNK d   0      16.603  -6.995   5.200  0.00  0.00     0.067 A 
ATOM     10  C   UNK d   0      16.682  -6.884   6.597  0.00  0.00     0.062 C 
ATOM     11  N   UNK d   0      17.156  -5.996   4.482  0.00  0.00    -0.248 NA
ATOM     12  C   UNK d   0      17.487  -6.007   7.333  0.00  0.00     0.041 A 
ATOM     13  N   UNK d   0      17.766  -4.701   7.157  0.00  0.00    -0.355 N 
ATOM     14  C   UNK d   0      18.209  -6.506   8.432  0.00  0.00    -0.022 A 
ATOM     15  C   UNK d   0      18.652  -4.361   8.111  0.00  0.00     0.042 A 
ATOM     16  H   UNK d   0      17.330  -4.029   6.386  0.00  0.00     0.166 HD
ATOM     17  C   UNK d   0      19.271  -3.124   8.384  0.00  0.00     0.062 C 
ATOM     18  C   UNK d   0      18.955  -5.466   8.930  0.00  0.00    -0.013 A 
ATOM     19  C   UNK d   0      19.843  -2.235   7.511  0.00  0.00     0.067 A 
ATOM     20  N   UNK d   0      19.629  -2.443   6.209  0.00  0.00    -0.248 NA
ATOM     21  C   UNK d   0      20.686  -1.057   7.622  0.00  0.00    -0.011 A 
ATOM     22  C   UNK d   0      20.273  -1.488   5.461  0.00  0.00     0.066 A 
ATOM     23  C   UNK d   0      20.103  -1.563   4.087  0.00  0.00     0.062 C 
ATOM     24  C   UNK d   0      20.938  -0.627   6.419  0.00  0.00    -0.020 A 
ATOM     25  C   UNK d   0      19.280  -2.444   3.368  0.00  0.00     0.041 A 
ATOM     26  N   UNK d   0      19.014  -3.745   3.534  0.00  0.00    -0.355 N 
ATOM     27  C   UNK d   0      18.552  -1.941   2.268  0.00  0.00    -0.022 A 
ATOM     28  C   UNK d   0      18.137  -4.089   2.578  0.00  0.00     0.042 A 
ATOM     29  H   UNK d   0      19.461  -4.422   4.303  0.00  0.00     0.166 HD
ATOM     30  C   UNK d   0      17.520  -5.317   2.289  0.00  0.00     0.062 C 
ATOM     31  C   UNK d   0      17.825  -2.975   1.762  0.00  0.00    -0.013 A 
ATOM     32  C   UNK d   0      17.020  -6.252   3.181  0.00  0.00     0.066 A 
BRANCH   8  33
ATOM     33  C   UNK d   0      15.367  -9.207   4.614  0.00  0.00     0.151 C 
BRANCH  33  34
ATOM     34  C   UNK d   0      14.104  -8.964   5.333  0.00  0.00     0.143 C 
ATOM     35  O   UNK d   0      13.056  -8.724   4.717  0.00  0.00    -0.650 OA
BRANCH  34  36
ATOM     36  O   UNK d   0      14.092  -9.002   6.709  0.00  0.00    -0.776 OA
ATOM     37  H   UNK d   0      14.759  -8.450   7.264  0.00  0.00     0.167 HD
ENDBRANCH  34  36
ENDBRANCH  33  34
ENDBRANCH   8  33
BRANCH  31  38
ATOM     38  C   UNK d   0      16.882  -2.910   0.584  0.00  0.00     0.151 C 
BRANCH  38  39
ATOM     39  C   UNK d   0      17.566  -2.989  -0.689  0.00  0.00     0.143 C 
ATOM     40  O   UNK d   0      17.956  -1.978  -1.299  0.00  0.00    -0.650 OA
BRANCH  39  41
ATOM     41  O   UNK d   0      17.804  -4.237  -1.264  0.00  0.00    -0.776 OA
ATOM     42  H   UNK d   0      18.511  -4.277  -2.004  0.00  0.00     0.167 HD
ENDBRANCH  39  41
ENDBRANCH  38  39
ENDBRANCH  31  38
BRANCH  27  43
ATOM     43  C   UNK d   0      18.524  -0.547   1.693  0.00  0.00     0.052 C 
BRANCH  43  44
ATOM     44  C   UNK d   0      17.425   0.300   2.248  0.00  0.00     0.115 C 
BRANCH  44  45
ATOM     45  C   UNK d   0      16.498   0.582   1.121  0.00  0.00     0.139 C 
ATOM     46  O   UNK d   0      15.286   0.781   1.388  0.00  0.00    -0.650 OA
BRANCH  45  47
ATOM     47  O   UNK d   0      16.912   0.640  -0.192  0.00  0.00    -0.776 OA
ATOM     48  H   UNK d   0      16.257   0.585  -0.989  0.00  0.00     0.167 HD
ENDBRANCH  45  47
ENDBRANCH  44  45
ENDBRANCH  43  44
ENDBRANCH  27  43
BRANCH  24  49
ATOM     49  C   UNK d   0      21.725   0.569   6.071  0.00  0.00     0.052 C 
BRANCH  49  50
ATOM     50  C   UNK d   0      23.121   0.176   5.661  0.00  0.00     0.115 C 
BRANCH  50  51
ATOM     51  C   UNK d   0      23.425   0.191   4.237  0.00  0.00     0.139 C 
ATOM     52  O   UNK d   0      23.581  -0.858   3.568  0.00  0.00    -0.650 OA
BRANCH  51  53
ATOM     53  O   UNK d   0      23.553   1.402   3.575  0.00  0.00    -0.776 OA
ATOM     54  H   UNK d   0      23.547   1.398   2.570  0.00  0.00     0.167 HD
ENDBRANCH  51  53
ENDBRANCH  50  51
ENDBRANCH  49  50
ENDBRANCH  24  49
BRANCH  21  55
ATOM     55  C   UNK d   0      21.149  -0.481   8.919  0.00  0.00     0.151 C 
BRANCH  55  56
ATOM     56  C   UNK d   0      21.922  -1.452   9.709  0.00  0.00     0.143 C 
ATOM     57  O   UNK d   0      23.041  -1.871   9.356  0.00  0.00    -0.650 OA
BRANCH  56  58
ATOM     58  O   UNK d   0      21.362  -1.911  10.901  0.00  0.00    -0.776 OA
ATOM     59  H   UNK d   0      20.878  -1.188  11.462  0.00  0.00     0.167 HD
ENDBRANCH  56  58
ENDBRANCH  55  56
ENDBRANCH  21  55
BRANCH  18  60
ATOM     60  C   UNK d   0      19.888  -5.560  10.112  0.00  0.00     0.151 C 
BRANCH  60  61
ATOM     61  C   UNK d   0      21.245  -5.628   9.550  0.00  0.00     0.143 C 
ATOM     62  O   UNK d   0      21.629  -6.341   8.622  0.00  0.00    -0.650 OA
BRANCH  61  63
ATOM     63  O   UNK d   0      22.194  -4.772  10.159  0.00  0.00    -0.776 OA
ATOM     64  H   UNK d   0      22.644  -5.027  11.020  0.00  0.00     0.167 HD
ENDBRANCH  61  63
ENDBRANCH  60  61
ENDBRANCH  18  60
BRANCH  14  65
ATOM     65  C   UNK d   0      18.173  -7.850   9.100  0.00  0.00     0.052 C 
BRANCH  65  66
ATOM     66  C   UNK d   0      16.912  -8.093   9.852  0.00  0.00     0.115 C 
BRANCH  66  67
ATOM     67  C   UNK d   0      16.588  -7.269  10.982  0.00  0.00     0.139 C 
ATOM     68  O   UNK d   0      17.170  -7.508  12.103  0.00  0.00    -0.650 OA
BRANCH  67  69
ATOM     69  O   UNK d   0      15.691  -6.202  11.030  0.00  0.00    -0.776 OA
ATOM     70  H   UNK d   0      16.113  -5.264  11.079  0.00  0.00     0.167 HD
ENDBRANCH  67  69
ENDBRANCH  66  67
ENDBRANCH  65  66
ENDBRANCH  14  65
ENDBRANCH   6   7
ENDBRANCH   5   6
ENDBRANCH   2   5
TORSDOF 28
ENDMDL
MODEL 7
REMARK VINA RESULT:      -7.4     27.573     33.116
REMARK  28 active torsions:
REMARK  status: ('A' for Active; 'I' for Inactive)
REMARK    1  A    between atoms: C_2  and  O_3 
REMARK    2  A    between atoms: C_2  and  C_4 
REMARK    3  A    between atoms: C_4  and  C_5 
REMARK    4  A    between atoms: C_5  and  C_6 
REMARK    5  A    between atoms: C_7  and  C_8 
REMARK    6  A    between atoms: C_8  and  C_9 
REMARK    7  A    between atoms: C_9  and  O_11 
REMARK    8  A    between atoms: C_28  and  C_29 
REMARK    9  A    between atoms: C_29  and  C_30 
REMARK   10  A    between atoms: C_30  and  O_32 
REMARK   11  A    between atoms: C_33  and  C_34 
REMARK   12  A    between atoms: C_34  and  C_35 
REMARK   13  A    between atoms: C_35  and  C_36 
REMARK   14  A    between atoms: C_36  and  O_38 
REMARK   15  A    between atoms: C_39  and  C_40 
REMARK   16  A    between atoms: C_40  and  C_41 
REMARK   17  A    between atoms: C_41  and  C_42 
REMARK   18  A    between atoms: C_42  and  O_44 
REMARK   19  A    between atoms: C_45  and  C_46 
REMARK   20  A    between atoms: C_46  and  C_47 
REMARK   21  A    between atoms: C_47  and  O_49 
REMARK   22  A    between atoms: C_50  and  C_51 
REMARK   23  A    between atoms: C_51  and  C_52 
REMARK   24  A    between atoms: C_52  and  O_54 
REMARK   25  A    between atoms: C_55  and  C_56 
REMARK   26  A    between atoms: C_56  and  C_57 
REMARK   27  A    between atoms: C_57  and  C_58 
REMARK   28  A    between atoms: C_58  and  O_60 
ROOT
ATOM      1  O   UNK d   0     -12.416  22.230  20.313  0.00  0.00    -0.650 OA
ATOM      2  C   UNK d   0     -11.629  21.381  19.840  0.00  0.00     0.139 C 
ENDROOT
BRANCH   2   3
ATOM      3  O   UNK d   0     -10.331  21.743  19.568  0.00  0.00    -0.776 OA
ATOM      4  H   UNK d   0      -9.547  21.277  20.029  0.00  0.00     0.167 HD
ENDBRANCH   2   3
BRANCH   2   5
ATOM      5  C   UNK d   0     -12.099  19.992  19.574  0.00  0.00     0.115 C 
BRANCH   5   6
ATOM      6  C   UNK d   0     -10.951  19.026  19.689  0.00  0.00     0.052 C 
BRANCH   6   7
ATOM      7  C   UNK d   0     -10.836  18.113  18.492  0.00  0.00    -0.020 A 
ATOM      8  C   UNK d   0     -11.090  16.831  18.439  0.00  0.00    -0.011 A 
ATOM      9  C   UNK d   0     -10.829  16.382  17.081  0.00  0.00     0.067 A 
ATOM     10  C   UNK d   0     -10.920  15.169  16.381  0.00  0.00     0.062 C 
ATOM     11  N   UNK d   0     -10.415  17.455  16.377  0.00  0.00    -0.248 NA
ATOM     12  C   UNK d   0     -10.890  14.987  14.994  0.00  0.00     0.041 A 
ATOM     13  N   UNK d   0     -10.113  15.540  14.044  0.00  0.00    -0.355 N 
ATOM     14  C   UNK d   0     -11.838  14.135  14.399  0.00  0.00    -0.022 A 
ATOM     15  C   UNK d   0     -10.548  15.068  12.861  0.00  0.00     0.042 A 
ATOM     16  H   UNK d   0      -9.260  16.236  14.208  0.00  0.00     0.166 HD
ATOM     17  C   UNK d   0     -10.090  15.320  11.552  0.00  0.00     0.062 C 
ATOM     18  C   UNK d   0     -11.629  14.184  13.043  0.00  0.00    -0.013 A 
ATOM     19  C   UNK d   0      -9.756  16.517  10.972  0.00  0.00     0.067 A 
ATOM     20  N   UNK d   0      -9.651  17.574  11.781  0.00  0.00    -0.248 NA
ATOM     21  C   UNK d   0      -9.478  16.982   9.623  0.00  0.00    -0.011 A 
ATOM     22  C   UNK d   0      -9.328  18.697  11.060  0.00  0.00     0.066 A 
ATOM     23  C   UNK d   0      -9.150  19.865  11.785  0.00  0.00     0.062 C 
ATOM     24  C   UNK d   0      -9.233  18.259   9.681  0.00  0.00    -0.020 A 
ATOM     25  C   UNK d   0      -9.172  20.024  13.179  0.00  0.00     0.041 A 
ATOM     26  N   UNK d   0      -9.954  19.486  14.122  0.00  0.00    -0.355 N 
ATOM     27  C   UNK d   0      -8.217  20.876  13.777  0.00  0.00    -0.022 A 
ATOM     28  C   UNK d   0      -9.528  19.962  15.303  0.00  0.00     0.042 A 
ATOM     29  H   UNK d   0     -10.817  18.795  13.955  0.00  0.00     0.166 HD
ATOM     30  C   UNK d   0      -9.980  19.727  16.611  0.00  0.00     0.062 C 
ATOM     31  C   UNK d   0      -8.435  20.842  15.120  0.00  0.00    -0.013 A 
ATOM     32  C   UNK d   0     -10.398  18.529  17.168  0.00  0.00     0.066 A 
BRANCH   8  33
ATOM     33  C   UNK d   0     -11.552  15.973  19.546  0.00  0.00     0.151 C 
BRANCH  33  34
ATOM     34  C   UNK d   0     -12.926  15.477  19.347  0.00  0.00     0.143 C 
ATOM     35  O   UNK d   0     -13.898  16.239  19.444  0.00  0.00    -0.650 OA
BRANCH  34  36
ATOM     36  O   UNK d   0     -13.127  14.148  19.052  0.00  0.00    -0.776 OA
ATOM     37  H   UNK d   0     -12.790  13.405  19.677  0.00  0.00     0.167 HD
ENDBRANCH  34  36
ENDBRANCH  33  34
ENDBRANCH   8  33
BRANCH  31  38
ATOM     38  C   UNK d   0      -7.646  21.589  16.170  0.00  0.00     0.151 C 
BRANCH  38  39
ATOM     39  C   UNK d   0      -8.322  22.780  16.639  0.00  0.00     0.143 C 
ATOM     40  O   UNK d   0      -8.940  23.539  15.873  0.00  0.00    -0.650 OA
BRANCH  39  41
ATOM     41  O   UNK d   0      -8.287  23.098  17.997  0.00  0.00    -0.776 OA
ATOM     42  H   UNK d   0      -7.721  22.492  18.598  0.00  0.00     0.167 HD
ENDBRANCH  39  41
ENDBRANCH  38  39
ENDBRANCH  31  38
BRANCH  27  43
ATOM     43  C   UNK d   0      -7.133  21.703  13.131  0.00  0.00     0.052 C 
BRANCH  43  44
ATOM     44  C   UNK d   0      -5.838  20.971  12.987  0.00  0.00     0.115 C 
BRANCH  44  45
ATOM     45  C   UNK d   0      -5.825  20.398  11.616  0.00  0.00     0.139 C 
ATOM     46  O   UNK d   0      -6.184  21.133  10.664  0.00  0.00    -0.650 OA
BRANCH  45  47
ATOM     47  O   UNK d   0      -5.431  19.104  11.351  0.00  0.00    -0.776 OA
ATOM     48  H   UNK d   0      -5.915  18.280  11.743  0.00  0.00     0.167 HD
ENDBRANCH  45  47
ENDBRANCH  44  45
ENDBRANCH  43  44
ENDBRANCH  27  43
BRANCH  24  49
ATOM     49  C   UNK d   0      -8.866  19.125   8.547  0.00  0.00     0.052 C 
BRANCH  49  50
ATOM     50  C   UNK d   0     -10.086  19.828   8.008  0.00  0.00     0.115 C 
BRANCH  50  51
ATOM     51  C   UNK d   0      -9.924  21.214   7.590  0.00  0.00     0.139 C 
ATOM     52  O   UNK d   0      -9.250  21.543   6.586  0.00  0.00    -0.650 OA
BRANCH  51  53
ATOM     53  O   UNK d   0     -10.530  22.226   8.319  0.00  0.00    -0.776 OA
ATOM     54  H   UNK d   0     -11.527  22.195   8.438  0.00  0.00     0.167 HD
ENDBRANCH  51  53
ENDBRANCH  50  51
ENDBRANCH  49  50
ENDBRANCH  24  49
BRANCH  21  55
ATOM     55  C   UNK d   0      -9.484  16.101   8.418  0.00  0.00     0.151 C 
BRANCH  55  56
ATOM     56  C   UNK d   0     -10.833  15.951   7.850  0.00  0.00     0.143 C 
ATOM     57  O   UNK d   0     -11.699  15.211   8.356  0.00  0.00    -0.650 OA
BRANCH  56  58
ATOM     58  O   UNK d   0     -11.137  16.674   6.698  0.00  0.00    -0.776 OA
ATOM     59  H   UNK d   0     -11.553  16.117   5.931  0.00  0.00     0.167 HD
ENDBRANCH  56  58
ENDBRANCH  55  56
ENDBRANCH  21  55
BRANCH  18  60
ATOM     60  C   UNK d   0     -12.432  13.424  12.016  0.00  0.00     0.151 C 
BRANCH  60  61
ATOM     61  C   UNK d   0     -13.405  14.384  11.473  0.00  0.00     0.143 C 
ATOM     62  O   UNK d   0     -13.901  15.348  12.056  0.00  0.00    -0.650 OA
BRANCH  61  63
ATOM     63  O   UNK d   0     -13.796  14.151  10.132  0.00  0.00    -0.776 OA
ATOM     64  H   UNK d   0     -13.342  13.451   9.574  0.00  0.00     0.167 HD
ENDBRANCH  61  63
ENDBRANCH  60  61
ENDBRANCH  18  60
BRANCH  14  65
ATOM     65  C   UNK d   0     -12.851  13.212  15.014  0.00  0.00     0.052 C 
BRANCH  65  66
ATOM     66  C   UNK d   0     -12.326  11.839  15.240  0.00  0.00     0.115 C 
BRANCH  66  67
ATOM     67  C   UNK d   0     -12.059  11.390  16.577  0.00  0.00     0.139 C 
ATOM     68  O   UNK d   0     -12.370  10.183  16.893  0.00  0.00    -0.650 OA
BRANCH  67  69
ATOM     69  O   UNK d   0     -11.485  12.114  17.622  0.00  0.00    -0.776 OA
ATOM     70  H   UNK d   0     -11.484  13.138  17.510  0.00  0.00     0.167 HD
ENDBRANCH  67  69
ENDBRANCH  66  67
ENDBRANCH  65  66
ENDBRANCH  14  65
ENDBRANCH   6   7
ENDBRANCH   5   6
ENDBRANCH   2   5
TORSDOF 28
ENDMDL
MODEL 8
REMARK VINA RESULT:      -7.3     10.323     15.471
REMARK  28 active torsions:
REMARK  status: ('A' for Active; 'I' for Inactive)
REMARK    1  A    between atoms: C_2  and  O_3 
REMARK    2  A    between atoms: C_2  and  C_4 
REMARK    3  A    between atoms: C_4  and  C_5 
REMARK    4  A    between atoms: C_5  and  C_6 
REMARK    5  A    between atoms: C_7  and  C_8 
REMARK    6  A    between atoms: C_8  and  C_9 
REMARK    7  A    between atoms: C_9  and  O_11 
REMARK    8  A    between atoms: C_28  and  C_29 
REMARK    9  A    between atoms: C_29  and  C_30 
REMARK   10  A    between atoms: C_30  and  O_32 
REMARK   11  A    between atoms: C_33  and  C_34 
REMARK   12  A    between atoms: C_34  and  C_35 
REMARK   13  A    between atoms: C_35  and  C_36 
REMARK   14  A    between atoms: C_36  and  O_38 
REMARK   15  A    between atoms: C_39  and  C_40 
REMARK   16  A    between atoms: C_40  and  C_41 
REMARK   17  A    between atoms: C_41  and  C_42 
REMARK   18  A    between atoms: C_42  and  O_44 
REMARK   19  A    between atoms: C_45  and  C_46 
REMARK   20  A    between atoms: C_46  and  C_47 
REMARK   21  A    between atoms: C_47  and  O_49 
REMARK   22  A    between atoms: C_50  and  C_51 
REMARK   23  A    between atoms: C_51  and  C_52 
REMARK   24  A    between atoms: C_52  and  O_54 
REMARK   25  A    between atoms: C_55  and  C_56 
REMARK   26  A    between atoms: C_56  and  C_57 
REMARK   27  A    between atoms: C_57  and  C_58 
REMARK   28  A    between atoms: C_58  and  O_60 
ROOT
ATOM      1  O   UNK d   0      24.506  13.461 -10.501  0.00  0.00    -0.650 OA
ATOM      2  C   UNK d   0      23.876  13.718  -9.451  0.00  0.00     0.139 C 
ENDROOT
BRANCH   2   3
ATOM      3  O   UNK d   0      23.025  14.796  -9.423  0.00  0.00    -0.776 OA
ATOM      4  H   UNK d   0      22.011  14.669  -9.429  0.00  0.00     0.167 HD
ENDBRANCH   2   3
BRANCH   2   5
ATOM      5  C   UNK d   0      24.051  12.860  -8.244  0.00  0.00     0.115 C 
BRANCH   5   6
ATOM      6  C   UNK d   0      22.766  12.797  -7.464  0.00  0.00     0.052 C 
BRANCH   6   7
ATOM      7  C   UNK d   0      22.948  13.174  -6.013  0.00  0.00    -0.020 A 
ATOM      8  C   UNK d   0      22.813  12.403  -4.965  0.00  0.00    -0.011 A 
ATOM      9  C   UNK d   0      23.079  13.207  -3.784  0.00  0.00     0.067 A 
ATOM     10  C   UNK d   0      23.122  12.988  -2.398  0.00  0.00     0.062 C 
ATOM     11  N   UNK d   0      23.362  14.458  -4.206  0.00  0.00    -0.248 NA
ATOM     12  C   UNK d   0      23.673  13.827  -1.424  0.00  0.00     0.041 A 
ATOM     13  N   UNK d   0      23.610  15.163  -1.266  0.00  0.00    -0.355 N 
ATOM     14  C   UNK d   0      24.494  13.267  -0.428  0.00  0.00    -0.022 A 
ATOM     15  C   UNK d   0      24.377  15.466  -0.201  0.00  0.00     0.042 A 
ATOM     16  H   UNK d   0      23.020  15.876  -1.883  0.00  0.00     0.166 HD
ATOM     17  C   UNK d   0      24.659  16.710   0.397  0.00  0.00     0.062 C 
ATOM     18  C   UNK d   0      24.948  14.303   0.350  0.00  0.00    -0.013 A 
ATOM     19  C   UNK d   0      24.988  17.900  -0.201  0.00  0.00     0.067 A 
ATOM     20  N   UNK d   0      24.840  17.972  -1.526  0.00  0.00    -0.248 NA
ATOM     21  C   UNK d   0      25.502  19.185   0.243  0.00  0.00    -0.011 A 
ATOM     22  C   UNK d   0      25.221  19.210  -1.981  0.00  0.00     0.066 A 
ATOM     23  C   UNK d   0      25.081  19.436  -3.343  0.00  0.00     0.062 C 
ATOM     24  C   UNK d   0      25.640  19.946  -0.805  0.00  0.00    -0.020 A 
ATOM     25  C   UNK d   0      24.513  18.584  -4.303  0.00  0.00     0.041 A 
ATOM     26  N   UNK d   0      24.588  17.258  -4.468  0.00  0.00    -0.355 N 
ATOM     27  C   UNK d   0      23.685  19.147  -5.299  0.00  0.00    -0.022 A 
ATOM     28  C   UNK d   0      23.831  16.955  -5.535  0.00  0.00     0.042 A 
ATOM     29  H   UNK d   0      25.190  16.545  -3.853  0.00  0.00     0.166 HD
ATOM     30  C   UNK d   0      23.549  15.723  -6.146  0.00  0.00     0.062 C 
ATOM     31  C   UNK d   0      23.249  18.123  -6.082  0.00  0.00    -0.013 A 
ATOM     32  C   UNK d   0      23.301  14.504  -5.537  0.00  0.00     0.066 A 
BRANCH   8  33
ATOM     33  C   UNK d   0      22.451  10.974  -4.958  0.00  0.00     0.151 C 
BRANCH  33  34
ATOM     34  C   UNK d   0      23.589  10.098  -4.626  0.00  0.00     0.143 C 
ATOM     35  O   UNK d   0      23.429   9.079  -3.940  0.00  0.00    -0.650 OA
BRANCH  34  36
ATOM     36  O   UNK d   0      24.846  10.421  -5.084  0.00  0.00    -0.776 OA
ATOM     37  H   UNK d   0      25.348   9.809  -5.741  0.00  0.00     0.167 HD
ENDBRANCH  34  36
ENDBRANCH  33  34
ENDBRANCH   8  33
BRANCH  31  38
ATOM     38  C   UNK d   0      22.325  18.242  -7.271  0.00  0.00     0.151 C 
BRANCH  38  39
ATOM     39  C   UNK d   0      22.987  18.765  -8.447  0.00  0.00     0.143 C 
ATOM     40  O   UNK d   0      24.223  18.743  -8.580  0.00  0.00    -0.650 OA
BRANCH  39  41
ATOM     41  O   UNK d   0      22.224  19.315  -9.477  0.00  0.00    -0.776 OA
ATOM     42  H   UNK d   0      21.354  18.830  -9.716  0.00  0.00     0.167 HD
ENDBRANCH  39  41
ENDBRANCH  38  39
ENDBRANCH  31  38
BRANCH  27  43
ATOM     43  C   UNK d   0      23.306  20.589  -5.527  0.00  0.00     0.052 C 
BRANCH  43  44
ATOM     44  C   UNK d   0      22.294  21.095  -4.551  0.00  0.00     0.115 C 
BRANCH  44  45
ATOM     45  C   UNK d   0      22.749  22.447  -4.132  0.00  0.00     0.139 C 
ATOM     46  O   UNK d   0      21.905  23.377  -4.117  0.00  0.00    -0.650 OA
BRANCH  45  47
ATOM     47  O   UNK d   0      24.048  22.715  -3.757  0.00  0.00    -0.776 OA
ATOM     48  H   UNK d   0      24.794  22.001  -3.770  0.00  0.00     0.167 HD
ENDBRANCH  45  47
ENDBRANCH  44  45
ENDBRANCH  43  44
ENDBRANCH  27  43
BRANCH  24  49
ATOM     49  C   UNK d   0      26.098  21.346  -0.806  0.00  0.00     0.052 C 
BRANCH  49  50
ATOM     50  C   UNK d   0      27.471  21.448  -1.418  0.00  0.00     0.115 C 
BRANCH  50  51
ATOM     51  C   UNK d   0      28.447  20.437  -1.034  0.00  0.00     0.139 C 
ATOM     52  O   UNK d   0      28.960  20.392   0.109  0.00  0.00    -0.650 OA
BRANCH  51  53
ATOM     53  O   UNK d   0      28.840  19.478  -1.955  0.00  0.00    -0.776 OA
ATOM     54  H   UNK d   0      29.315  19.783  -2.786  0.00  0.00     0.167 HD
ENDBRANCH  51  53
ENDBRANCH  50  51
ENDBRANCH  49  50
ENDBRANCH  24  49
BRANCH  21  55
ATOM     55  C   UNK d   0      25.798  19.519   1.667  0.00  0.00     0.151 C 
BRANCH  55  56
ATOM     56  C   UNK d   0      24.585  19.899   2.408  0.00  0.00     0.143 C 
ATOM     57  O   UNK d   0      24.231  19.331   3.460  0.00  0.00    -0.650 OA
BRANCH  56  58
ATOM     58  O   UNK d   0      23.811  20.939   1.896  0.00  0.00    -0.776 OA
ATOM     59  H   UNK d   0      23.084  20.649   1.218  0.00  0.00     0.167 HD
ENDBRANCH  56  58
ENDBRANCH  55  56
ENDBRANCH  21  55
BRANCH  18  60
ATOM     60  C   UNK d   0      25.870  14.154   1.535  0.00  0.00     0.151 C 
BRANCH  60  61
ATOM     61  C   UNK d   0      27.223  14.011   0.979  0.00  0.00     0.143 C 
ATOM     62  O   UNK d   0      28.089  13.209   1.329  0.00  0.00    -0.650 OA
BRANCH  61  63
ATOM     63  O   UNK d   0      27.540  14.905  -0.073  0.00  0.00    -0.776 OA
ATOM     64  H   UNK d   0      26.948  14.984  -0.881  0.00  0.00     0.167 HD
ENDBRANCH  61  63
ENDBRANCH  60  61
ENDBRANCH  18  60
BRANCH  14  65
ATOM     65  C   UNK d   0      24.800  11.833  -0.102  0.00  0.00     0.052 C 
BRANCH  65  66
ATOM     66  C   UNK d   0      25.578  11.147  -1.168  0.00  0.00     0.115 C 
BRANCH  66  67
ATOM     67  C   UNK d   0      26.584  11.871  -1.893  0.00  0.00     0.139 C 
ATOM     68  O   UNK d   0      26.360  12.165  -3.124  0.00  0.00    -0.650 OA
BRANCH  67  69
ATOM     69  O   UNK d   0      27.820  12.314  -1.425  0.00  0.00    -0.776 OA
ATOM     70  H   UNK d   0      27.801  13.167  -0.847  0.00  0.00     0.167 HD
ENDBRANCH  67  69
ENDBRANCH  66  67
ENDBRANCH  65  66
ENDBRANCH  14  65
ENDBRANCH   6   7
ENDBRANCH   5   6
ENDBRANCH   2   5
TORSDOF 28
ENDMDL
MODEL 9
REMARK VINA RESULT:      -7.3     25.175     27.899
REMARK  28 active torsions:
REMARK  status: ('A' for Active; 'I' for Inactive)
REMARK    1  A    between atoms: C_2  and  O_3 
REMARK    2  A    between atoms: C_2  and  C_4 
REMARK    3  A    between atoms: C_4  and  C_5 
REMARK    4  A    between atoms: C_5  and  C_6 
REMARK    5  A    between atoms: C_7  and  C_8 
REMARK    6  A    between atoms: C_8  and  C_9 
REMARK    7  A    between atoms: C_9  and  O_11 
REMARK    8  A    between atoms: C_28  and  C_29 
REMARK    9  A    between atoms: C_29  and  C_30 
REMARK   10  A    between atoms: C_30  and  O_32 
REMARK   11  A    between atoms: C_33  and  C_34 
REMARK   12  A    between atoms: C_34  and  C_35 
REMARK   13  A    between atoms: C_35  and  C_36 
REMARK   14  A    between atoms: C_36  and  O_38 
REMARK   15  A    between atoms: C_39  and  C_40 
REMARK   16  A    between atoms: C_40  and  C_41 
REMARK   17  A    between atoms: C_41  and  C_42 
REMARK   18  A    between atoms: C_42  and  O_44 
REMARK   19  A    between atoms: C_45  and  C_46 
REMARK   20  A    between atoms: C_46  and  C_47 
REMARK   21  A    between atoms: C_47  and  O_49 
REMARK   22  A    between atoms: C_50  and  C_51 
REMARK   23  A    between atoms: C_51  and  C_52 
REMARK   24  A    between atoms: C_52  and  O_54 
REMARK   25  A    between atoms: C_55  and  C_56 
REMARK   26  A    between atoms: C_56  and  C_57 
REMARK   27  A    between atoms: C_57  and  C_58 
REMARK   28  A    between atoms: C_58  and  O_60 
ROOT
ATOM      1  O   UNK d   0      18.252  -6.041   9.590  0.00  0.00    -0.650 OA
ATOM      2  C   UNK d   0      19.021  -5.202  10.108  0.00  0.00     0.139 C 
ENDROOT
BRANCH   2   3
ATOM      3  O   UNK d   0      20.016  -5.632  10.953  0.00  0.00    -0.776 OA
ATOM      4  H   UNK d   0      20.749  -4.995  11.271  0.00  0.00     0.167 HD
ENDBRANCH   2   3
BRANCH   2   5
ATOM      5  C   UNK d   0      18.856  -3.751   9.810  0.00  0.00     0.115 C 
BRANCH   5   6
ATOM      6  C   UNK d   0      17.401  -3.373   9.869  0.00  0.00     0.052 C 
BRANCH   6   7
ATOM      7  C   UNK d   0      16.962  -2.562   8.673  0.00  0.00    -0.020 A 
ATOM      8  C   UNK d   0      16.432  -1.366   8.670  0.00  0.00    -0.011 A 
ATOM      9  C   UNK d   0      16.168  -0.999   7.289  0.00  0.00     0.067 A 
ATOM     10  C   UNK d   0      15.646   0.119   6.620  0.00  0.00     0.062 C 
ATOM     11  N   UNK d   0      16.563  -2.034   6.517  0.00  0.00    -0.248 NA
ATOM     12  C   UNK d   0      15.727   0.402   5.252  0.00  0.00     0.041 A 
ATOM     13  N   UNK d   0      15.566  -0.388   4.173  0.00  0.00    -0.355 N 
ATOM     14  C   UNK d   0      16.084   1.700   4.845  0.00  0.00    -0.022 A 
ATOM     15  C   UNK d   0      15.821   0.374   3.092  0.00  0.00     0.042 A 
ATOM     16  H   UNK d   0      15.260  -1.457   4.174  0.00  0.00     0.166 HD
ATOM     17  C   UNK d   0      15.797   0.051   1.721  0.00  0.00     0.062 C 
ATOM     18  C   UNK d   0      16.149   1.689   3.474  0.00  0.00    -0.013 A 
ATOM     19  C   UNK d   0      16.308  -1.052   1.086  0.00  0.00     0.067 A 
ATOM     20  N   UNK d   0      16.713  -2.062   1.860  0.00  0.00    -0.248 NA
ATOM     21  C   UNK d   0      16.559  -1.441  -0.292  0.00  0.00    -0.011 A 
ATOM     22  C   UNK d   0      17.212  -3.083   1.088  0.00  0.00     0.066 A 
ATOM     23  C   UNK d   0      17.636  -4.217   1.766  0.00  0.00     0.062 C 
ATOM     24  C   UNK d   0      17.092  -2.629  -0.283  0.00  0.00    -0.020 A 
ATOM     25  C   UNK d   0      17.534  -4.486   3.140  0.00  0.00     0.041 A 
ATOM     26  N   UNK d   0      17.708  -3.706   4.213  0.00  0.00    -0.355 N 
ATOM     27  C   UNK d   0      17.171  -5.789   3.547  0.00  0.00    -0.022 A 
ATOM     28  C   UNK d   0      17.464  -4.466   5.292  0.00  0.00     0.042 A 
ATOM     29  H   UNK d   0      18.026  -2.634   4.210  0.00  0.00     0.166 HD
ATOM     30  C   UNK d   0      17.492  -4.160   6.662  0.00  0.00     0.062 C 
ATOM     31  C   UNK d   0      17.123  -5.784   4.907  0.00  0.00    -0.013 A 
ATOM     32  C   UNK d   0      17.051  -3.006   7.289  0.00  0.00     0.066 A 
BRANCH   8  33
ATOM     33  C   UNK d   0      16.140  -0.525   9.845  0.00  0.00     0.151 C 
BRANCH  33  34
ATOM     34  C   UNK d   0      14.767  -0.706  10.350  0.00  0.00     0.143 C 
ATOM     35  O   UNK d   0      14.315   0.026  11.242  0.00  0.00    -0.650 OA
BRANCH  34  36
ATOM     36  O   UNK d   0      13.979  -1.702   9.821  0.00  0.00    -0.776 OA
ATOM     37  H   UNK d   0      14.254  -2.692   9.886  0.00  0.00     0.167 HD
ENDBRANCH  34  36
ENDBRANCH  33  34
ENDBRANCH   8  33
BRANCH  31  38
ATOM     38  C   UNK d   0      16.763  -6.956   5.790  0.00  0.00     0.151 C 
BRANCH  38  39
ATOM     39  C   UNK d   0      17.914  -7.536   6.450  0.00  0.00     0.143 C 
ATOM     40  O   UNK d   0      17.815  -8.487   7.245  0.00  0.00    -0.650 OA
BRANCH  39  41
ATOM     41  O   UNK d   0      19.184  -7.020   6.194  0.00  0.00    -0.776 OA
ATOM     42  H   UNK d   0      19.966  -7.680   6.232  0.00  0.00     0.167 HD
ENDBRANCH  39  41
ENDBRANCH  38  39
ENDBRANCH  31  38
BRANCH  27  43
ATOM     43  C   UNK d   0      16.877  -7.008   2.709  0.00  0.00     0.052 C 
BRANCH  43  44
ATOM     44  C   UNK d   0      16.051  -8.029   3.421  0.00  0.00     0.115 C 
BRANCH  44  45
ATOM     45  C   UNK d   0      15.010  -8.478   2.460  0.00  0.00     0.139 C 
ATOM     46  O   UNK d   0      15.240  -8.344   1.233  0.00  0.00    -0.650 OA
BRANCH  45  47
ATOM     47  O   UNK d   0      13.814  -9.035   2.860  0.00  0.00    -0.776 OA
ATOM     48  H   UNK d   0      13.021  -9.182   2.215  0.00  0.00     0.167 HD
ENDBRANCH  45  47
ENDBRANCH  44  45
ENDBRANCH  43  44
ENDBRANCH  27  43
BRANCH  24  49
ATOM     49  C   UNK d   0      17.469  -3.420  -1.467  0.00  0.00     0.052 C 
BRANCH  49  50
ATOM     50  C   UNK d   0      17.704  -2.516  -2.649  0.00  0.00     0.115 C 
BRANCH  50  51
ATOM     51  C   UNK d   0      19.049  -1.985  -2.824  0.00  0.00     0.139 C 
ATOM     52  O   UNK d   0      19.419  -0.899  -2.317  0.00  0.00    -0.650 OA
BRANCH  51  53
ATOM     53  O   UNK d   0      19.972  -2.690  -3.580  0.00  0.00    -0.776 OA
ATOM     54  H   UNK d   0      20.140  -2.392  -4.525  0.00  0.00     0.167 HD
ENDBRANCH  51  53
ENDBRANCH  50  51
ENDBRANCH  49  50
ENDBRANCH  24  49
BRANCH  21  55
ATOM     55  C   UNK d   0      16.236  -0.588  -1.473  0.00  0.00     0.151 C 
BRANCH  55  56
ATOM     56  C   UNK d   0      16.567   0.826  -1.239  0.00  0.00     0.143 C 
ATOM     57  O   UNK d   0      15.701   1.720  -1.167  0.00  0.00    -0.650 OA
BRANCH  56  58
ATOM     58  O   UNK d   0      17.912   1.162  -1.094  0.00  0.00    -0.776 OA
ATOM     59  H   UNK d   0      18.097   1.956  -0.454  0.00  0.00     0.167 HD
ENDBRANCH  56  58
ENDBRANCH  55  56
ENDBRANCH  21  55
BRANCH  18  60
ATOM     60  C   UNK d   0      16.509   2.878   2.617  0.00  0.00     0.151 C 
BRANCH  60  61
ATOM     61  C   UNK d   0      17.953   2.766   2.357  0.00  0.00     0.143 C 
ATOM     62  O   UNK d   0      18.493   2.329   1.341  0.00  0.00    -0.650 OA
BRANCH  61  63
ATOM     63  O   UNK d   0      18.790   3.219   3.406  0.00  0.00    -0.776 OA
ATOM     64  H   UNK d   0      19.157   2.579   4.088  0.00  0.00     0.167 HD
ENDBRANCH  61  63
ENDBRANCH  60  61
ENDBRANCH  18  60
BRANCH  14  65
ATOM     65  C   UNK d   0      16.270   2.961   5.641  0.00  0.00     0.052 C 
BRANCH  65  66
ATOM     66  C   UNK d   0      15.165   3.938   5.450  0.00  0.00     0.115 C 
BRANCH  66  67
ATOM     67  C   UNK d   0      15.440   5.345   5.516  0.00  0.00     0.139 C 
ATOM     68  O   UNK d   0      16.611   5.758   5.183  0.00  0.00    -0.650 OA
BRANCH  67  69
ATOM     69  O   UNK d   0      14.575   6.366   5.909  0.00  0.00    -0.776 OA
ATOM     70  H   UNK d   0      14.032   6.188   6.767  0.00  0.00     0.167 HD
ENDBRANCH  67  69
ENDBRANCH  66  67
ENDBRANCH  65  66
ENDBRANCH  14  65
ENDBRANCH   6   7
ENDBRANCH   5   6
ENDBRANCH   2   5
TORSDOF 28
ENDMDL
MODEL 10
REMARK VINA RESULT:      -7.2     10.669     14.725
REMARK  28 active torsions:
REMARK  status: ('A' for Active; 'I' for Inactive)
REMARK    1  A    between atoms: C_2  and  O_3 
REMARK    2  A    between atoms: C_2  and  C_4 
REMARK    3  A    between atoms: C_4  and  C_5 
REMARK    4  A    between atoms: C_5  and  C_6 
REMARK    5  A    between atoms: C_7  and  C_8 
REMARK    6  A    between atoms: C_8  and  C_9 
REMARK    7  A    between atoms: C_9  and  O_11 
REMARK    8  A    between atoms: C_28  and  C_29 
REMARK    9  A    between atoms: C_29  and  C_30 
REMARK   10  A    between atoms: C_30  and  O_32 
REMARK   11  A    between atoms: C_33  and  C_34 
REMARK   12  A    between atoms: C_34  and  C_35 
REMARK   13  A    between atoms: C_35  and  C_36 
REMARK   14  A    between atoms: C_36  and  O_38 
REMARK   15  A    between atoms: C_39  and  C_40 
REMARK   16  A    between atoms: C_40  and  C_41 
REMARK   17  A    between atoms: C_41  and  C_42 
REMARK   18  A    between atoms: C_42  and  O_44 
REMARK   19  A    between atoms: C_45  and  C_46 
REMARK   20  A    between atoms: C_46  and  C_47 
REMARK   21  A    between atoms: C_47  and  O_49 
REMARK   22  A    between atoms: C_50  and  C_51 
REMARK   23  A    between atoms: C_51  and  C_52 
REMARK   24  A    between atoms: C_52  and  O_54 
REMARK   25  A    between atoms: C_55  and  C_56 
REMARK   26  A    between atoms: C_56  and  C_57 
REMARK   27  A    between atoms: C_57  and  C_58 
REMARK   28  A    between atoms: C_58  and  O_60 
ROOT
ATOM      1  O   UNK d   0      26.365  16.132   3.386  0.00  0.00    -0.650 OA
ATOM      2  C   UNK d   0      25.694  17.042   2.849  0.00  0.00     0.139 C 
ENDROOT
BRANCH   2   3
ATOM      3  O   UNK d   0      24.348  16.855   2.645  0.00  0.00    -0.776 OA
ATOM      4  H   UNK d   0      23.708  17.650   2.589  0.00  0.00     0.167 HD
ENDBRANCH   2   3
BRANCH   2   5
ATOM      5  C   UNK d   0      26.353  18.313   2.435  0.00  0.00     0.115 C 
BRANCH   5   6
ATOM      6  C   UNK d   0      27.220  18.078   1.229  0.00  0.00     0.052 C 
BRANCH   6   7
ATOM      7  C   UNK d   0      26.417  17.888  -0.036  0.00  0.00    -0.020 A 
ATOM      8  C   UNK d   0      25.869  18.815  -0.780  0.00  0.00    -0.011 A 
ATOM      9  C   UNK d   0      25.193  18.156  -1.885  0.00  0.00     0.067 A 
ATOM     10  C   UNK d   0      24.457  18.563  -3.009  0.00  0.00     0.062 C 
ATOM     11  N   UNK d   0      25.376  16.828  -1.732  0.00  0.00    -0.248 NA
ATOM     12  C   UNK d   0      24.116  17.789  -4.124  0.00  0.00     0.041 A 
ATOM     13  N   UNK d   0      23.669  16.523  -4.221  0.00  0.00    -0.355 N 
ATOM     14  C   UNK d   0      24.291  18.333  -5.409  0.00  0.00    -0.022 A 
ATOM     15  C   UNK d   0      23.564  16.247  -5.534  0.00  0.00     0.042 A 
ATOM     16  H   UNK d   0      23.415  15.844  -3.377  0.00  0.00     0.166 HD
ATOM     17  C   UNK d   0      23.144  15.072  -6.190  0.00  0.00     0.062 C 
ATOM     18  C   UNK d   0      23.945  17.358  -6.311  0.00  0.00    -0.013 A 
ATOM     19  C   UNK d   0      23.480  13.769  -5.925  0.00  0.00     0.067 A 
ATOM     20  N   UNK d   0      24.132  13.533  -4.784  0.00  0.00    -0.248 NA
ATOM     21  C   UNK d   0      23.322  12.492  -6.600  0.00  0.00    -0.011 A 
ATOM     22  C   UNK d   0      24.414  12.194  -4.664  0.00  0.00     0.066 A 
ATOM     23  C   UNK d   0      25.059  11.802  -3.500  0.00  0.00     0.062 C 
ATOM     24  C   UNK d   0      23.874  11.575  -5.858  0.00  0.00    -0.020 A 
ATOM     25  C   UNK d   0      25.381  12.593  -2.386  0.00  0.00     0.041 A 
ATOM     26  N   UNK d   0      25.840  13.846  -2.291  0.00  0.00    -0.355 N 
ATOM     27  C   UNK d   0      25.201  12.047  -1.097  0.00  0.00    -0.022 A 
ATOM     28  C   UNK d   0      25.954  14.121  -0.981  0.00  0.00     0.042 A 
ATOM     29  H   UNK d   0      26.105  14.524  -3.139  0.00  0.00     0.166 HD
ATOM     30  C   UNK d   0      26.379  15.281  -0.316  0.00  0.00     0.062 C 
ATOM     31  C   UNK d   0      25.561  13.007  -0.202  0.00  0.00    -0.013 A 
ATOM     32  C   UNK d   0      26.105  16.601  -0.638  0.00  0.00     0.066 A 
BRANCH   8  33
ATOM     33  C   UNK d   0      25.912  20.271  -0.554  0.00  0.00     0.151 C 
BRANCH  33  34
ATOM     34  C   UNK d   0      27.015  20.929  -1.278  0.00  0.00     0.143 C 
ATOM     35  O   UNK d   0      28.154  20.979  -0.793  0.00  0.00    -0.650 OA
BRANCH  34  36
ATOM     36  O   UNK d   0      26.772  21.496  -2.508  0.00  0.00    -0.776 OA
ATOM     37  H   UNK d   0      27.472  21.458  -3.261  0.00  0.00     0.167 HD
ENDBRANCH  34  36
ENDBRANCH  33  34
ENDBRANCH   8  33
BRANCH  31  38
ATOM     38  C   UNK d   0      25.521  12.883   1.303  0.00  0.00     0.151 C 
BRANCH  38  39
ATOM     39  C   UNK d   0      24.405  13.589   1.896  0.00  0.00     0.143 C 
ATOM     40  O   UNK d   0      23.452  14.015   1.220  0.00  0.00    -0.650 OA
BRANCH  39  41
ATOM     41  O   UNK d   0      24.384  13.805   3.274  0.00  0.00    -0.776 OA
ATOM     42  H   UNK d   0      23.788  13.184   3.830  0.00  0.00     0.167 HD
ENDBRANCH  39  41
ENDBRANCH  38  39
ENDBRANCH  31  38
BRANCH  27  43
ATOM     43  C   UNK d   0      24.713  10.677  -0.695  0.00  0.00     0.052 C 
BRANCH  43  44
ATOM     44  C   UNK d   0      23.386  10.701  -0.008  0.00  0.00     0.115 C 
BRANCH  44  45
ATOM     45  C   UNK d   0      22.417  11.277  -0.976  0.00  0.00     0.139 C 
ATOM     46  O   UNK d   0      22.101  10.588  -1.977  0.00  0.00    -0.650 OA
BRANCH  45  47
ATOM     47  O   UNK d   0      21.853  12.524  -0.817  0.00  0.00    -0.776 OA
ATOM     48  H   UNK d   0      21.225  12.949  -1.518  0.00  0.00     0.167 HD
ENDBRANCH  45  47
ENDBRANCH  44  45
ENDBRANCH  43  44
ENDBRANCH  27  43
BRANCH  24  49
ATOM     49  C   UNK d   0      23.910  10.130  -6.146  0.00  0.00     0.052 C 
BRANCH  49  50
ATOM     50  C   UNK d   0      22.986   9.388  -5.214  0.00  0.00     0.115 C 
BRANCH  50  51
ATOM     51  C   UNK d   0      21.556   9.500  -5.467  0.00  0.00     0.139 C 
ATOM     52  O   UNK d   0      21.062   9.401  -6.615  0.00  0.00    -0.650 OA
BRANCH  51  53
ATOM     53  O   UNK d   0      20.688   9.729  -4.410  0.00  0.00    -0.776 OA
ATOM     54  H   UNK d   0      20.596   9.016  -3.708  0.00  0.00     0.167 HD
ENDBRANCH  51  53
ENDBRANCH  50  51
ENDBRANCH  49  50
ENDBRANCH  24  49
BRANCH  21  55
ATOM     55  C   UNK d   0      22.633  12.320  -7.912  0.00  0.00     0.151 C 
BRANCH  55  56
ATOM     56  C   UNK d   0      23.253  13.131  -8.971  0.00  0.00     0.143 C 
ATOM     57  O   UNK d   0      24.486  13.184  -9.147  0.00  0.00    -0.650 OA
BRANCH  56  58
ATOM     58  O   UNK d   0      22.410  13.865  -9.804  0.00  0.00    -0.776 OA
ATOM     59  H   UNK d   0      22.894  14.467 -10.494  0.00  0.00     0.167 HD
ENDBRANCH  56  58
ENDBRANCH  55  56
ENDBRANCH  21  55
BRANCH  18  60
ATOM     60  C   UNK d   0      23.992  17.512  -7.811  0.00  0.00     0.151 C 
BRANCH  60  61
ATOM     61  C   UNK d   0      22.698  18.095  -8.197  0.00  0.00     0.143 C 
ATOM     62  O   UNK d   0      21.579  17.626  -7.983  0.00  0.00    -0.650 OA
BRANCH  61  63
ATOM     63  O   UNK d   0      22.775  19.328  -8.888  0.00  0.00    -0.776 OA
ATOM     64  H   UNK d   0      23.207  20.131  -8.468  0.00  0.00     0.167 HD
ENDBRANCH  61  63
ENDBRANCH  60  61
ENDBRANCH  18  60
BRANCH  14  65
ATOM     65  C   UNK d   0      24.662  19.723  -5.844  0.00  0.00     0.052 C 
BRANCH  65  66
ATOM     66  C   UNK d   0      23.526  20.680  -5.763  0.00  0.00     0.115 C 
BRANCH  66  67
ATOM     67  C   UNK d   0      23.292  21.405  -4.547  0.00  0.00     0.139 C 
ATOM     68  O   UNK d   0      22.078  21.568  -4.153  0.00  0.00    -0.650 OA
BRANCH  67  69
ATOM     69  O   UNK d   0      24.239  21.981  -3.701  0.00  0.00    -0.776 OA
ATOM     70  H   UNK d   0      23.969  22.878  -3.271  0.00  0.00     0.167 HD
ENDBRANCH  67  69
ENDBRANCH  66  67
ENDBRANCH  65  66
ENDBRANCH  14  65
ENDBRANCH   6   7
ENDBRANCH   5   6
ENDBRANCH   2   5
TORSDOF 28
ENDMDL
MODEL 11
REMARK VINA RESULT:      -7.1     26.493     28.983
REMARK  28 active torsions:
REMARK  status: ('A' for Active; 'I' for Inactive)
REMARK    1  A    between atoms: C_2  and  O_3 
REMARK    2  A    between atoms: C_2  and  C_4 
REMARK    3  A    between atoms: C_4  and  C_5 
REMARK    4  A    between atoms: C_5  and  C_6 
REMARK    5  A    between atoms: C_7  and  C_8 
REMARK    6  A    between atoms: C_8  and  C_9 
REMARK    7  A    between atoms: C_9  and  O_11 
REMARK    8  A    between atoms: C_28  and  C_29 
REMARK    9  A    between atoms: C_29  and  C_30 
REMARK   10  A    between atoms: C_30  and  O_32 
REMARK   11  A    between atoms: C_33  and  C_34 
REMARK   12  A    between atoms: C_34  and  C_35 
REMARK   13  A    between atoms: C_35  and  C_36 
REMARK   14  A    between atoms: C_36  and  O_38 
REMARK   15  A    between atoms: C_39  and  C_40 
REMARK   16  A    between atoms: C_40  and  C_41 
REMARK   17  A    between atoms: C_41  and  C_42 
REMARK   18  A    between atoms: C_42  and  O_44 
REMARK   19  A    between atoms: C_45  and  C_46 
REMARK   20  A    between atoms: C_46  and  C_47 
REMARK   21  A    between atoms: C_47  and  O_49 
REMARK   22  A    between atoms: C_50  and  C_51 
REMARK   23  A    between atoms: C_51  and  C_52 
REMARK   24  A    between atoms: C_52  and  O_54 
REMARK   25  A    between atoms: C_55  and  C_56 
REMARK   26  A    between atoms: C_56  and  C_57 
REMARK   27  A    between atoms: C_57  and  C_58 
REMARK   28  A    between atoms: C_58  and  O_60 
ROOT
ATOM      1  O   UNK d   0      16.859   5.958   3.881  0.00  0.00    -0.650 OA
ATOM      2  C   UNK d   0      15.881   5.206   4.091  0.00  0.00     0.139 C 
ENDROOT
BRANCH   2   3
ATOM      3  O   UNK d   0      14.615   5.740   4.118  0.00  0.00    -0.776 OA
ATOM      4  H   UNK d   0      13.992   5.661   3.311  0.00  0.00     0.167 HD
ENDBRANCH   2   3
BRANCH   2   5
ATOM      5  C   UNK d   0      16.092   3.747   4.309  0.00  0.00     0.115 C 
BRANCH   5   6
ATOM      6  C   UNK d   0      17.328   3.288   3.584  0.00  0.00     0.052 C 
BRANCH   6   7
ATOM      7  C   UNK d   0      18.231   2.444   4.451  0.00  0.00    -0.020 A 
ATOM      8  C   UNK d   0      19.337   2.812   5.046  0.00  0.00    -0.011 A 
ATOM      9  C   UNK d   0      19.863   1.659   5.759  0.00  0.00     0.067 A 
ATOM     10  C   UNK d   0      20.968   1.396   6.583  0.00  0.00     0.062 C 
ATOM     11  N   UNK d   0      19.016   0.631   5.538  0.00  0.00    -0.248 NA
ATOM     12  C   UNK d   0      21.161   0.286   7.412  0.00  0.00     0.041 A 
ATOM     13  N   UNK d   0      20.933  -1.025   7.206  0.00  0.00    -0.355 N 
ATOM     14  C   UNK d   0      21.620   0.490   8.726  0.00  0.00    -0.022 A 
ATOM     15  C   UNK d   0      21.228  -1.657   8.357  0.00  0.00     0.042 A 
ATOM     16  H   UNK d   0      20.589  -1.496   6.259  0.00  0.00     0.166 HD
ATOM     17  C   UNK d   0      21.170  -3.026   8.689  0.00  0.00     0.062 C 
ATOM     18  C   UNK d   0      21.662  -0.740   9.334  0.00  0.00    -0.013 A 
ATOM     19  C   UNK d   0      20.179  -3.936   8.422  0.00  0.00     0.067 A 
ATOM     20  N   UNK d   0      19.223  -3.557   7.570  0.00  0.00    -0.248 NA
ATOM     21  C   UNK d   0      19.857  -5.286   8.853  0.00  0.00    -0.011 A 
ATOM     22  C   UNK d   0      18.299  -4.561   7.414  0.00  0.00     0.066 A 
ATOM     23  C   UNK d   0      17.266  -4.314   6.522  0.00  0.00     0.062 C 
ATOM     24  C   UNK d   0      18.753  -5.644   8.263  0.00  0.00    -0.020 A 
ATOM     25  C   UNK d   0      17.097  -3.197   5.689  0.00  0.00     0.041 A 
ATOM     26  N   UNK d   0      17.309  -1.892   5.899  0.00  0.00    -0.355 N 
ATOM     27  C   UNK d   0      16.640  -3.403   4.368  0.00  0.00    -0.022 A 
ATOM     28  C   UNK d   0      17.007  -1.259   4.755  0.00  0.00     0.042 A 
ATOM     29  H   UNK d   0      17.644  -1.419   6.854  0.00  0.00     0.166 HD
ATOM     30  C   UNK d   0      17.052   0.102   4.414  0.00  0.00     0.062 C 
ATOM     31  C   UNK d   0      16.581  -2.182   3.770  0.00  0.00    -0.013 A 
ATOM     32  C   UNK d   0      18.014   1.039   4.759  0.00  0.00     0.066 A 
BRANCH   8  33
ATOM     33  C   UNK d   0      19.960   4.148   5.009  0.00  0.00     0.151 C 
BRANCH  33  34
ATOM     34  C   UNK d   0      19.684   4.940   6.221  0.00  0.00     0.143 C 
ATOM     35  O   UNK d   0      20.529   5.041   7.121  0.00  0.00    -0.650 OA
BRANCH  34  36
ATOM     36  O   UNK d   0      18.469   5.573   6.351  0.00  0.00    -0.776 OA
ATOM     37  H   UNK d   0      18.007   6.014   5.544  0.00  0.00     0.167 HD
ENDBRANCH  34  36
ENDBRANCH  33  34
ENDBRANCH   8  33
BRANCH  31  38
ATOM     38  C   UNK d   0      16.159  -1.906   2.346  0.00  0.00     0.151 C 
BRANCH  38  39
ATOM     39  C   UNK d   0      17.260  -1.983   1.409  0.00  0.00     0.143 C 
ATOM     40  O   UNK d   0      18.420  -1.659   1.718  0.00  0.00    -0.650 OA
BRANCH  39  41
ATOM     41  O   UNK d   0      17.025  -2.434   0.111  0.00  0.00    -0.776 OA
ATOM     42  H   UNK d   0      17.558  -1.981  -0.639  0.00  0.00     0.167 HD
ENDBRANCH  39  41
ENDBRANCH  38  39
ENDBRANCH  31  38
BRANCH  27  43
ATOM     43  C   UNK d   0      16.265  -4.688   3.673  0.00  0.00     0.052 C 
BRANCH  43  44
ATOM     44  C   UNK d   0      17.419  -5.349   2.992  0.00  0.00     0.115 C 
BRANCH  44  45
ATOM     45  C   UNK d   0      17.300  -6.804   3.272  0.00  0.00     0.139 C 
ATOM     46  O   UNK d   0      18.327  -7.516   3.152  0.00  0.00    -0.650 OA
BRANCH  45  47
ATOM     47  O   UNK d   0      16.117  -7.396   3.661  0.00  0.00    -0.776 OA
ATOM     48  H   UNK d   0      15.215  -7.203   3.197  0.00  0.00     0.167 HD
ENDBRANCH  45  47
ENDBRANCH  44  45
ENDBRANCH  43  44
ENDBRANCH  27  43
BRANCH  24  49
ATOM     49  C   UNK d   0      18.088  -6.952   8.386  0.00  0.00     0.052 C 
BRANCH  49  50
ATOM     50  C   UNK d   0      16.750  -6.799   9.063  0.00  0.00     0.115 C 
BRANCH  50  51
ATOM     51  C   UNK d   0      16.758  -6.479  10.484  0.00  0.00     0.139 C 
ATOM     52  O   UNK d   0      15.900  -5.734  11.014  0.00  0.00    -0.650 OA
BRANCH  51  53
ATOM     53  O   UNK d   0      17.746  -7.007  11.301  0.00  0.00    -0.776 OA
ATOM     54  H   UNK d   0      18.604  -7.310  10.875  0.00  0.00     0.167 HD
ENDBRANCH  51  53
ENDBRANCH  50  51
ENDBRANCH  49  50
ENDBRANCH  24  49
BRANCH  21  55
ATOM     55  C   UNK d   0      20.688  -6.079   9.807  0.00  0.00     0.151 C 
BRANCH  55  56
ATOM     56  C   UNK d   0      21.826  -6.728   9.138  0.00  0.00     0.143 C 
ATOM     57  O   UNK d   0      21.762  -7.173   7.976  0.00  0.00    -0.650 OA
BRANCH  56  58
ATOM     58  O   UNK d   0      23.019  -6.840   9.851  0.00  0.00    -0.776 OA
ATOM     59  H   UNK d   0      23.640  -6.013   9.795  0.00  0.00     0.167 HD
ENDBRANCH  56  58
ENDBRANCH  55  56
ENDBRANCH  21  55
BRANCH  18  60
ATOM     60  C   UNK d   0      22.092  -0.986  10.759  0.00  0.00     0.151 C 
BRANCH  60  61
ATOM     61  C   UNK d   0      23.468  -1.499  10.684  0.00  0.00     0.143 C 
ATOM     62  O   UNK d   0      24.435  -0.953  10.151  0.00  0.00    -0.650 OA
BRANCH  61  63
ATOM     63  O   UNK d   0      23.678  -2.757  11.298  0.00  0.00    -0.776 OA
ATOM     64  H   UNK d   0      22.958  -3.192  11.847  0.00  0.00     0.167 HD
ENDBRANCH  61  63
ENDBRANCH  60  61
ENDBRANCH  18  60
BRANCH  14  65
ATOM     65  C   UNK d   0      22.110   1.733   9.413  0.00  0.00     0.052 C 
BRANCH  65  66
ATOM     66  C   UNK d   0      21.034   2.735   9.640  0.00  0.00     0.115 C 
BRANCH  66  67
ATOM     67  C   UNK d   0      20.299   2.721  10.873  0.00  0.00     0.139 C 
ATOM     68  O   UNK d   0      19.780   3.821  11.290  0.00  0.00    -0.650 OA
BRANCH  67  69
ATOM     69  O   UNK d   0      20.062   1.634  11.714  0.00  0.00    -0.776 OA
ATOM     70  H   UNK d   0      20.284   1.780  12.709  0.00  0.00     0.167 HD
ENDBRANCH  67  69
ENDBRANCH  66  67
ENDBRANCH  65  66
ENDBRANCH  14  65
ENDBRANCH   6   7
ENDBRANCH   5   6
ENDBRANCH   2   5
TORSDOF 28
ENDMDL
MODEL 12
REMARK VINA RESULT:      -7.1     25.704     28.501
REMARK  28 active torsions:
REMARK  status: ('A' for Active; 'I' for Inactive)
REMARK    1  A    between atoms: C_2  and  O_3 
REMARK    2  A    between atoms: C_2  and  C_4 
REMARK    3  A    between atoms: C_4  and  C_5 
REMARK    4  A    between atoms: C_5  and  C_6 
REMARK    5  A    between atoms: C_7  and  C_8 
REMARK    6  A    between atoms: C_8  and  C_9 
REMARK    7  A    between atoms: C_9  and  O_11 
REMARK    8  A    between atoms: C_28  and  C_29 
REMARK    9  A    between atoms: C_29  and  C_30 
REMARK   10  A    between atoms: C_30  and  O_32 
REMARK   11  A    between atoms: C_33  and  C_34 
REMARK   12  A    between atoms: C_34  and  C_35 
REMARK   13  A    between atoms: C_35  and  C_36 
REMARK   14  A    between atoms: C_36  and  O_38 
REMARK   15  A    between atoms: C_39  and  C_40 
REMARK   16  A    between atoms: C_40  and  C_41 
REMARK   17  A    between atoms: C_41  and  C_42 
REMARK   18  A    between atoms: C_42  and  O_44 
REMARK   19  A    between atoms: C_45  and  C_46 
REMARK   20  A    between atoms: C_46  and  C_47 
REMARK   21  A    between atoms: C_47  and  O_49 
REMARK   22  A    between atoms: C_50  and  C_51 
REMARK   23  A    between atoms: C_51  and  C_52 
REMARK   24  A    between atoms: C_52  and  O_54 
REMARK   25  A    between atoms: C_55  and  C_56 
REMARK   26  A    between atoms: C_56  and  C_57 
REMARK   27  A    between atoms: C_57  and  C_58 
REMARK   28  A    between atoms: C_58  and  O_60 
ROOT
ATOM      1  O   UNK d   0      -3.405   0.804 -12.022  0.00  0.00    -0.650 OA
ATOM      2  C   UNK d   0      -3.265   1.900 -11.435  0.00  0.00     0.139 C 
ENDROOT
BRANCH   2   3
ATOM      3  O   UNK d   0      -2.418   2.844 -11.963  0.00  0.00    -0.776 OA
ATOM      4  H   UNK d   0      -2.178   2.841 -12.956  0.00  0.00     0.167 HD
ENDBRANCH   2   3
BRANCH   2   5
ATOM      5  C   UNK d   0      -4.012   2.174 -10.174  0.00  0.00     0.115 C 
BRANCH   5   6
ATOM      6  C   UNK d   0      -4.427   0.880  -9.527  0.00  0.00     0.052 C 
BRANCH   6   7
ATOM      7  C   UNK d   0      -3.628   0.569  -8.284  0.00  0.00    -0.020 A 
ATOM      8  C   UNK d   0      -4.004   0.707  -7.039  0.00  0.00    -0.011 A 
ATOM      9  C   UNK d   0      -2.898   0.290  -6.192  0.00  0.00     0.067 A 
ATOM     10  C   UNK d   0      -2.666   0.178  -4.812  0.00  0.00     0.062 C 
ATOM     11  N   UNK d   0      -1.888  -0.080  -7.006  0.00  0.00    -0.248 NA
ATOM     12  C   UNK d   0      -1.625  -0.512  -4.182  0.00  0.00     0.041 A 
ATOM     13  N   UNK d   0      -0.310  -0.584  -4.465  0.00  0.00    -0.355 N 
ATOM     14  C   UNK d   0      -1.924  -1.341  -3.085  0.00  0.00    -0.022 A 
ATOM     15  C   UNK d   0       0.231  -1.444  -3.581  0.00  0.00     0.042 A 
ATOM     16  H   UNK d   0       0.227  -0.024  -5.261  0.00  0.00     0.166 HD
ATOM     17  C   UNK d   0       1.563  -1.879  -3.429  0.00  0.00     0.062 C 
ATOM     18  C   UNK d   0      -0.750  -1.939  -2.700  0.00  0.00    -0.013 A 
ATOM     19  C   UNK d   0       2.455  -2.278  -4.391  0.00  0.00     0.067 A 
ATOM     20  N   UNK d   0       2.115  -2.051  -5.662  0.00  0.00    -0.248 NA
ATOM     21  C   UNK d   0       3.750  -2.938  -4.405  0.00  0.00    -0.011 A 
ATOM     22  C   UNK d   0       3.093  -2.515  -6.507  0.00  0.00     0.066 A 
ATOM     23  C   UNK d   0       2.886  -2.309  -7.863  0.00  0.00     0.062 C 
ATOM     24  C   UNK d   0       4.116  -3.077  -5.647  0.00  0.00    -0.020 A 
ATOM     25  C   UNK d   0       1.839  -1.602  -8.475  0.00  0.00     0.041 A 
ATOM     26  N   UNK d   0       0.530  -1.541  -8.203  0.00  0.00    -0.355 N 
ATOM     27  C   UNK d   0       2.141  -0.767  -9.573  0.00  0.00    -0.022 A 
ATOM     28  C   UNK d   0      -0.014  -0.692  -9.089  0.00  0.00     0.042 A 
ATOM     29  H   UNK d   0      -0.010  -2.113  -7.409  0.00  0.00     0.166 HD
ATOM     30  C   UNK d   0      -1.338  -0.257  -9.258  0.00  0.00     0.062 C 
ATOM     31  C   UNK d   0       0.974  -0.187  -9.967  0.00  0.00    -0.013 A 
ATOM     32  C   UNK d   0      -2.263   0.064  -8.278  0.00  0.00     0.066 A 
BRANCH   8  33
ATOM     33  C   UNK d   0      -5.308   1.199  -6.557  0.00  0.00     0.151 C 
BRANCH  33  34
ATOM     34  C   UNK d   0      -5.446   2.662  -6.680  0.00  0.00     0.143 C 
ATOM     35  O   UNK d   0      -6.215   3.160  -7.515  0.00  0.00    -0.650 OA
BRANCH  34  36
ATOM     36  O   UNK d   0      -4.710   3.482  -5.857  0.00  0.00    -0.776 OA
ATOM     37  H   UNK d   0      -3.860   3.955  -6.195  0.00  0.00     0.167 HD
ENDBRANCH  34  36
ENDBRANCH  33  34
ENDBRANCH   8  33
BRANCH  31  38
ATOM     38  C   UNK d   0       0.807   0.799 -11.100  0.00  0.00     0.151 C 
BRANCH  38  39
ATOM     39  C   UNK d   0       0.496   0.158 -12.360  0.00  0.00     0.143 C 
ATOM     40  O   UNK d   0       1.311  -0.567 -12.957  0.00  0.00    -0.650 OA
BRANCH  39  41
ATOM     41  O   UNK d   0      -0.759   0.350 -12.937  0.00  0.00    -0.776 OA
ATOM     42  H   UNK d   0      -0.895   1.216 -13.469  0.00  0.00     0.167 HD
ENDBRANCH  39  41
ENDBRANCH  38  39
ENDBRANCH  31  38
BRANCH  27  43
ATOM     43  C   UNK d   0       3.466  -0.509 -10.246  0.00  0.00     0.052 C 
BRANCH  43  44
ATOM     44  C   UNK d   0       4.359   0.399  -9.464  0.00  0.00     0.115 C 
BRANCH  44  45
ATOM     45  C   UNK d   0       5.696  -0.249  -9.428  0.00  0.00     0.139 C 
ATOM     46  O   UNK d   0       5.845  -1.334 -10.043  0.00  0.00    -0.650 OA
BRANCH  45  47
ATOM     47  O   UNK d   0       6.771   0.292  -8.756  0.00  0.00    -0.776 OA
ATOM     48  H   UNK d   0       6.697   1.142  -8.173  0.00  0.00     0.167 HD
ENDBRANCH  45  47
ENDBRANCH  44  45
ENDBRANCH  43  44
ENDBRANCH  27  43
BRANCH  24  49
ATOM     49  C   UNK d   0       5.383  -3.662  -6.118  0.00  0.00     0.052 C 
BRANCH  49  50
ATOM     50  C   UNK d   0       6.264  -2.594  -6.714  0.00  0.00     0.115 C 
BRANCH  50  51
ATOM     51  C   UNK d   0       6.877  -1.647  -5.792  0.00  0.00     0.139 C 
ATOM     52  O   UNK d   0       7.784  -1.974  -4.990  0.00  0.00    -0.650 OA
BRANCH  51  53
ATOM     53  O   UNK d   0       6.453  -0.327  -5.782  0.00  0.00    -0.776 OA
ATOM     54  H   UNK d   0       6.520   0.187  -4.921  0.00  0.00     0.167 HD
ENDBRANCH  51  53
ENDBRANCH  50  51
ENDBRANCH  49  50
ENDBRANCH  24  49
BRANCH  21  55
ATOM     55  C   UNK d   0       4.488  -3.356  -3.177  0.00  0.00     0.151 C 
BRANCH  55  56
ATOM     56  C   UNK d   0       4.992  -2.202  -2.417  0.00  0.00     0.143 C 
ATOM     57  O   UNK d   0       5.256  -1.106  -2.950  0.00  0.00    -0.650 OA
BRANCH  56  58
ATOM     58  O   UNK d   0       5.177  -2.359  -1.044  0.00  0.00    -0.776 OA
ATOM     59  H   UNK d   0       6.043  -2.859  -0.775  0.00  0.00     0.167 HD
ENDBRANCH  56  58
ENDBRANCH  55  56
ENDBRANCH  21  55
BRANCH  18  60
ATOM     60  C   UNK d   0      -0.611  -2.918  -1.561  0.00  0.00     0.151 C 
BRANCH  60  61
ATOM     61  C   UNK d   0      -0.696  -4.256  -2.166  0.00  0.00     0.143 C 
ATOM     62  O   UNK d   0       0.239  -4.950  -2.567  0.00  0.00    -0.650 OA
BRANCH  61  63
ATOM     63  O   UNK d   0      -2.006  -4.780  -2.287  0.00  0.00    -0.776 OA
ATOM     64  H   UNK d   0      -2.793  -4.309  -1.879  0.00  0.00     0.167 HD
ENDBRANCH  61  63
ENDBRANCH  60  61
ENDBRANCH  18  60
BRANCH  14  65
ATOM     65  C   UNK d   0      -3.202  -1.532  -2.320  0.00  0.00     0.052 C 
BRANCH  65  66
ATOM     66  C   UNK d   0      -3.528  -0.383  -1.434  0.00  0.00     0.115 C 
BRANCH  66  67
ATOM     67  C   UNK d   0      -2.742  -0.147  -0.256  0.00  0.00     0.139 C 
ATOM     68  O   UNK d   0      -2.318   1.045  -0.029  0.00  0.00    -0.650 OA
BRANCH  67  69
ATOM     69  O   UNK d   0      -2.360  -1.073   0.714  0.00  0.00    -0.776 OA
ATOM     70  H   UNK d   0      -1.436  -0.918   1.144  0.00  0.00     0.167 HD
ENDBRANCH  67  69
ENDBRANCH  66  67
ENDBRANCH  65  66
ENDBRANCH  14  65
ENDBRANCH   6   7
ENDBRANCH   5   6
ENDBRANCH   2   5
TORSDOF 28
ENDMDL
MODEL 13
REMARK VINA RESULT:      -7.1     25.951     29.206
REMARK  28 active torsions:
REMARK  status: ('A' for Active; 'I' for Inactive)
REMARK    1  A    between atoms: C_2  and  O_3 
REMARK    2  A    between atoms: C_2  and  C_4 
REMARK    3  A    between atoms: C_4  and  C_5 
REMARK    4  A    between atoms: C_5  and  C_6 
REMARK    5  A    between atoms: C_7  and  C_8 
REMARK    6  A    between atoms: C_8  and  C_9 
REMARK    7  A    between atoms: C_9  and  O_11 
REMARK    8  A    between atoms: C_28  and  C_29 
REMARK    9  A    between atoms: C_29  and  C_30 
REMARK   10  A    between atoms: C_30  and  O_32 
REMARK   11  A    between atoms: C_33  and  C_34 
REMARK   12  A    between atoms: C_34  and  C_35 
REMARK   13  A    between atoms: C_35  and  C_36 
REMARK   14  A    between atoms: C_36  and  O_38 
REMARK   15  A    between atoms: C_39  and  C_40 
REMARK   16  A    between atoms: C_40  and  C_41 
REMARK   17  A    between atoms: C_41  and  C_42 
REMARK   18  A    between atoms: C_42  and  O_44 
REMARK   19  A    between atoms: C_45  and  C_46 
REMARK   20  A    between atoms: C_46  and  C_47 
REMARK   21  A    between atoms: C_47  and  O_49 
REMARK   22  A    between atoms: C_50  and  C_51 
REMARK   23  A    between atoms: C_51  and  C_52 
REMARK   24  A    between atoms: C_52  and  O_54 
REMARK   25  A    between atoms: C_55  and  C_56 
REMARK   26  A    between atoms: C_56  and  C_57 
REMARK   27  A    between atoms: C_57  and  C_58 
REMARK   28  A    between atoms: C_58  and  O_60 
ROOT
ATOM      1  O   UNK d   0       4.687  -5.991  -2.288  0.00  0.00    -0.650 OA
ATOM      2  C   UNK d   0       4.084  -5.184  -1.546  0.00  0.00     0.139 C 
ENDROOT
BRANCH   2   3
ATOM      3  O   UNK d   0       4.658  -4.803  -0.357  0.00  0.00    -0.776 OA
ATOM      4  H   UNK d   0       4.688  -3.821  -0.076  0.00  0.00     0.167 HD
ENDBRANCH   2   3
BRANCH   2   5
ATOM      5  C   UNK d   0       2.755  -4.644  -1.952  0.00  0.00     0.115 C 
BRANCH   5   6
ATOM      6  C   UNK d   0       2.780  -3.139  -1.931  0.00  0.00     0.052 C 
BRANCH   6   7
ATOM      7  C   UNK d   0       2.560  -2.536  -3.298  0.00  0.00    -0.020 A 
ATOM      8  C   UNK d   0       3.431  -2.417  -4.267  0.00  0.00    -0.011 A 
ATOM      9  C   UNK d   0       2.766  -1.767  -5.385  0.00  0.00     0.067 A 
ATOM     10  C   UNK d   0       3.120  -1.380  -6.687  0.00  0.00     0.062 C 
ATOM     11  N   UNK d   0       1.495  -1.521  -5.006  0.00  0.00    -0.248 NA
ATOM     12  C   UNK d   0       2.257  -1.013  -7.726  0.00  0.00     0.041 A 
ATOM     13  N   UNK d   0       1.159  -0.233  -7.732  0.00  0.00    -0.355 N 
ATOM     14  C   UNK d   0       2.469  -1.550  -9.008  0.00  0.00    -0.022 A 
ATOM     15  C   UNK d   0       0.665  -0.268  -8.984  0.00  0.00     0.042 A 
ATOM     16  H   UNK d   0       0.753   0.346  -6.874  0.00  0.00     0.166 HD
ATOM     17  C   UNK d   0      -0.464   0.367  -9.539  0.00  0.00     0.062 C 
ATOM     18  C   UNK d   0       1.460  -1.084  -9.813  0.00  0.00    -0.013 A 
ATOM     19  C   UNK d   0      -1.730   0.480  -9.023  0.00  0.00     0.067 A 
ATOM     20  N   UNK d   0      -1.897   0.124  -7.746  0.00  0.00    -0.248 NA
ATOM     21  C   UNK d   0      -3.029   0.896  -9.524  0.00  0.00    -0.011 A 
ATOM     22  C   UNK d   0      -3.211   0.276  -7.377  0.00  0.00     0.066 A 
ATOM     23  C   UNK d   0      -3.519  -0.024  -6.059  0.00  0.00     0.062 C 
ATOM     24  C   UNK d   0      -3.892   0.771  -8.558  0.00  0.00    -0.020 A 
ATOM     25  C   UNK d   0      -2.636  -0.378  -5.027  0.00  0.00     0.041 A 
ATOM     26  N   UNK d   0      -1.553  -1.165  -5.017  0.00  0.00    -0.355 N 
ATOM     27  C   UNK d   0      -2.847   0.165  -3.741  0.00  0.00    -0.022 A 
ATOM     28  C   UNK d   0      -1.064  -1.139  -3.768  0.00  0.00     0.042 A 
ATOM     29  H   UNK d   0      -1.152  -1.755  -5.878  0.00  0.00     0.166 HD
ATOM     30  C   UNK d   0       0.053  -1.773  -3.200  0.00  0.00     0.062 C 
ATOM     31  C   UNK d   0      -1.856  -0.311  -2.938  0.00  0.00    -0.013 A 
ATOM     32  C   UNK d   0       1.307  -1.960  -3.761  0.00  0.00     0.066 A 
BRANCH   8  33
ATOM     33  C   UNK d   0       4.840  -2.851  -4.250  0.00  0.00     0.151 C 
BRANCH  33  34
ATOM     34  C   UNK d   0       5.773  -1.750  -3.952  0.00  0.00     0.143 C 
ATOM     35  O   UNK d   0       6.079  -1.474  -2.783  0.00  0.00    -0.650 OA
BRANCH  34  36
ATOM     36  O   UNK d   0       6.308  -1.019  -4.987  0.00  0.00    -0.776 OA
ATOM     37  H   UNK d   0       6.967  -1.442  -5.655  0.00  0.00     0.167 HD
ENDBRANCH  34  36
ENDBRANCH  33  34
ENDBRANCH   8  33
BRANCH  31  38
ATOM     38  C   UNK d   0      -1.664   0.011  -1.474  0.00  0.00     0.151 C 
BRANCH  38  39
ATOM     39  C   UNK d   0      -2.354  -0.915  -0.601  0.00  0.00     0.143 C 
ATOM     40  O   UNK d   0      -1.760  -1.820   0.012  0.00  0.00    -0.650 OA
BRANCH  39  41
ATOM     41  O   UNK d   0      -3.733  -0.799  -0.430  0.00  0.00    -0.776 OA
ATOM     42  H   UNK d   0      -4.325  -1.321  -1.084  0.00  0.00     0.167 HD
ENDBRANCH  39  41
ENDBRANCH  38  39
ENDBRANCH  31  38
BRANCH  27  43
ATOM     43  C   UNK d   0      -3.932   1.096  -3.260  0.00  0.00     0.052 C 
BRANCH  43  44
ATOM     44  C   UNK d   0      -3.405   2.368  -2.681  0.00  0.00     0.115 C 
BRANCH  44  45
ATOM     45  C   UNK d   0      -4.161   2.608  -1.424  0.00  0.00     0.139 C 
ATOM     46  O   UNK d   0      -4.997   1.743  -1.063  0.00  0.00    -0.650 OA
BRANCH  45  47
ATOM     47  O   UNK d   0      -3.979   3.729  -0.645  0.00  0.00    -0.776 OA
ATOM     48  H   UNK d   0      -3.274   3.780   0.109  0.00  0.00     0.167 HD
ENDBRANCH  45  47
ENDBRANCH  44  45
ENDBRANCH  43  44
ENDBRANCH  27  43
BRANCH  24  49
ATOM     49  C   UNK d   0      -5.322   1.118  -8.620  0.00  0.00     0.052 C 
BRANCH  49  50
ATOM     50  C   UNK d   0      -5.762   1.762  -7.329  0.00  0.00     0.115 C 
BRANCH  50  51
ATOM     51  C   UNK d   0      -5.482   3.182  -7.166  0.00  0.00     0.139 C 
ATOM     52  O   UNK d   0      -5.878   4.048  -7.981  0.00  0.00    -0.650 OA
BRANCH  51  53
ATOM     53  O   UNK d   0      -4.748   3.615  -6.072  0.00  0.00    -0.776 OA
ATOM     54  H   UNK d   0      -3.785   3.865  -6.215  0.00  0.00     0.167 HD
ENDBRANCH  51  53
ENDBRANCH  50  51
ENDBRANCH  49  50
ENDBRANCH  24  49
BRANCH  21  55
ATOM     55  C   UNK d   0      -3.271   1.380 -10.915  0.00  0.00     0.151 C 
BRANCH  55  56
ATOM     56  C   UNK d   0      -3.219   0.286 -11.897  0.00  0.00     0.143 C 
ATOM     57  O   UNK d   0      -2.823   0.448 -13.068  0.00  0.00    -0.650 OA
BRANCH  56  58
ATOM     58  O   UNK d   0      -3.635  -0.978 -11.482  0.00  0.00    -0.776 OA
ATOM     59  H   UNK d   0      -3.534  -1.725 -12.193  0.00  0.00     0.167 HD
ENDBRANCH  56  58
ENDBRANCH  55  56
ENDBRANCH  21  55
BRANCH  18  60
ATOM     60  C   UNK d   0       1.294  -1.420 -11.274  0.00  0.00     0.151 C 
BRANCH  60  61
ATOM     61  C   UNK d   0       0.443  -2.618 -11.320  0.00  0.00     0.143 C 
ATOM     62  O   UNK d   0       0.804  -3.790 -11.208  0.00  0.00    -0.650 OA
BRANCH  61  63
ATOM     63  O   UNK d   0      -0.938  -2.370 -11.513  0.00  0.00    -0.776 OA
ATOM     64  H   UNK d   0      -1.610  -3.115 -11.464  0.00  0.00     0.167 HD
ENDBRANCH  61  63
ENDBRANCH  60  61
ENDBRANCH  18  60
BRANCH  14  65
ATOM     65  C   UNK d   0       3.597  -2.382  -9.549  0.00  0.00     0.052 C 
BRANCH  65  66
ATOM     66  C   UNK d   0       4.886  -1.642  -9.616  0.00  0.00     0.115 C 
BRANCH  66  67
ATOM     67  C   UNK d   0       4.900  -0.278 -10.064  0.00  0.00     0.139 C 
ATOM     68  O   UNK d   0       5.217   0.641  -9.222  0.00  0.00    -0.650 OA
BRANCH  67  69
ATOM     69  O   UNK d   0       4.605   0.205 -11.338  0.00  0.00    -0.776 OA
ATOM     70  H   UNK d   0       3.783   0.822 -11.404  0.00  0.00     0.167 HD
ENDBRANCH  67  69
ENDBRANCH  66  67
ENDBRANCH  65  66
ENDBRANCH  14  65
ENDBRANCH   6   7
ENDBRANCH   5   6
ENDBRANCH   2   5
TORSDOF 28
ENDMDL
MODEL 14
REMARK VINA RESULT:      -7.1     10.977     15.133
REMARK  28 active torsions:
REMARK  status: ('A' for Active; 'I' for Inactive)
REMARK    1  A    between atoms: C_2  and  O_3 
REMARK    2  A    between atoms: C_2  and  C_4 
REMARK    3  A    between atoms: C_4  and  C_5 
REMARK    4  A    between atoms: C_5  and  C_6 
REMARK    5  A    between atoms: C_7  and  C_8 
REMARK    6  A    between atoms: C_8  and  C_9 
REMARK    7  A    between atoms: C_9  and  O_11 
REMARK    8  A    between atoms: C_28  and  C_29 
REMARK    9  A    between atoms: C_29  and  C_30 
REMARK   10  A    between atoms: C_30  and  O_32 
REMARK   11  A    between atoms: C_33  and  C_34 
REMARK   12  A    between atoms: C_34  and  C_35 
REMARK   13  A    between atoms: C_35  and  C_36 
REMARK   14  A    between atoms: C_36  and  O_38 
REMARK   15  A    between atoms: C_39  and  C_40 
REMARK   16  A    between atoms: C_40  and  C_41 
REMARK   17  A    between atoms: C_41  and  C_42 
REMARK   18  A    between atoms: C_42  and  O_44 
REMARK   19  A    between atoms: C_45  and  C_46 
REMARK   20  A    between atoms: C_46  and  C_47 
REMARK   21  A    between atoms: C_47  and  O_49 
REMARK   22  A    between atoms: C_50  and  C_51 
REMARK   23  A    between atoms: C_51  and  C_52 
REMARK   24  A    between atoms: C_52  and  O_54 
REMARK   25  A    between atoms: C_55  and  C_56 
REMARK   26  A    between atoms: C_56  and  C_57 
REMARK   27  A    between atoms: C_57  and  C_58 
REMARK   28  A    between atoms: C_58  and  O_60 
ROOT
ATOM      1  O   UNK d   0      26.077  21.720  -2.397  0.00  0.00    -0.650 OA
ATOM      2  C   UNK d   0      27.007  21.921  -1.584  0.00  0.00     0.139 C 
ENDROOT
BRANCH   2   3
ATOM      3  O   UNK d   0      27.984  22.837  -1.892  0.00  0.00    -0.776 OA
ATOM      4  H   UNK d   0      27.756  23.823  -2.038  0.00  0.00     0.167 HD
ENDBRANCH   2   3
BRANCH   2   5
ATOM      5  C   UNK d   0      27.050  21.172  -0.297  0.00  0.00     0.115 C 
BRANCH   5   6
ATOM      6  C   UNK d   0      25.754  20.440  -0.080  0.00  0.00     0.052 C 
BRANCH   6   7
ATOM      7  C   UNK d   0      25.877  18.955  -0.327  0.00  0.00    -0.020 A 
ATOM      8  C   UNK d   0      26.449  18.063   0.440  0.00  0.00    -0.011 A 
ATOM      9  C   UNK d   0      26.328  16.771  -0.214  0.00  0.00     0.067 A 
ATOM     10  C   UNK d   0      26.698  15.449   0.079  0.00  0.00     0.062 C 
ATOM     11  N   UNK d   0      25.672  16.970  -1.377  0.00  0.00    -0.248 NA
ATOM     12  C   UNK d   0      26.246  14.283  -0.550  0.00  0.00     0.041 A 
ATOM     13  N   UNK d   0      26.048  13.998  -1.851  0.00  0.00    -0.355 N 
ATOM     14  C   UNK d   0      25.860  13.188   0.244  0.00  0.00    -0.022 A 
ATOM     15  C   UNK d   0      25.538  12.752  -1.902  0.00  0.00     0.042 A 
ATOM     16  H   UNK d   0      26.282  14.656  -2.716  0.00  0.00     0.166 HD
ATOM     17  C   UNK d   0      25.151  11.969  -3.008  0.00  0.00     0.062 C 
ATOM     18  C   UNK d   0      25.405  12.213  -0.608  0.00  0.00    -0.013 A 
ATOM     19  C   UNK d   0      24.420  12.334  -4.109  0.00  0.00     0.067 A 
ATOM     20  N   UNK d   0      24.198  13.639  -4.283  0.00  0.00    -0.248 NA
ATOM     21  C   UNK d   0      23.766  11.639  -5.206  0.00  0.00    -0.011 A 
ATOM     22  C   UNK d   0      23.444  13.848  -5.412  0.00  0.00     0.066 A 
ATOM     23  C   UNK d   0      23.170  15.169  -5.734  0.00  0.00     0.062 C 
ATOM     24  C   UNK d   0      23.193  12.530  -5.962  0.00  0.00    -0.020 A 
ATOM     25  C   UNK d   0      23.644  16.326  -5.096  0.00  0.00     0.041 A 
ATOM     26  N   UNK d   0      23.827  16.616  -3.803  0.00  0.00    -0.355 N 
ATOM     27  C   UNK d   0      24.036  17.423  -5.894  0.00  0.00    -0.022 A 
ATOM     28  C   UNK d   0      24.327  17.860  -3.748  0.00  0.00     0.042 A 
ATOM     29  H   UNK d   0      23.581  15.957  -2.933  0.00  0.00     0.166 HD
ATOM     30  C   UNK d   0      24.708  18.655  -2.655  0.00  0.00     0.062 C 
ATOM     31  C   UNK d   0      24.470  18.398  -5.049  0.00  0.00    -0.013 A 
ATOM     32  C   UNK d   0      25.373  18.263  -1.504  0.00  0.00     0.066 A 
BRANCH   8  33
ATOM     33  C   UNK d   0      27.110  18.303   1.736  0.00  0.00     0.151 C 
BRANCH  33  34
ATOM     34  C   UNK d   0      26.247  17.980   2.885  0.00  0.00     0.143 C 
ATOM     35  O   UNK d   0      26.603  17.154   3.737  0.00  0.00    -0.650 OA
BRANCH  34  36
ATOM     36  O   UNK d   0      25.027  18.606   3.011  0.00  0.00    -0.776 OA
ATOM     37  H   UNK d   0      24.147  18.080   2.928  0.00  0.00     0.167 HD
ENDBRANCH  34  36
ENDBRANCH  33  34
ENDBRANCH   8  33
BRANCH  31  38
ATOM     38  C   UNK d   0      25.002  19.754  -5.451  0.00  0.00     0.151 C 
BRANCH  38  39
ATOM     39  C   UNK d   0      24.004  20.799  -5.356  0.00  0.00     0.143 C 
ATOM     40  O   UNK d   0      23.419  21.253  -6.355  0.00  0.00    -0.650 OA
BRANCH  39  41
ATOM     41  O   UNK d   0      23.677  21.324  -4.106  0.00  0.00    -0.776 OA
ATOM     42  H   UNK d   0      24.435  21.769  -3.579  0.00  0.00     0.167 HD
ENDBRANCH  39  41
ENDBRANCH  38  39
ENDBRANCH  31  38
BRANCH  27  43
ATOM     43  C   UNK d   0      24.010  17.575  -7.395  0.00  0.00     0.052 C 
BRANCH  43  44
ATOM     44  C   UNK d   0      22.907  18.458  -7.881  0.00  0.00     0.115 C 
BRANCH  44  45
ATOM     45  C   UNK d   0      22.385  17.837  -9.126  0.00  0.00     0.139 C 
ATOM     46  O   UNK d   0      22.030  18.596 -10.062  0.00  0.00    -0.650 OA
BRANCH  45  47
ATOM     47  O   UNK d   0      22.281  16.473  -9.295  0.00  0.00    -0.776 OA
ATOM     48  H   UNK d   0      22.438  16.007 -10.203  0.00  0.00     0.167 HD
ENDBRANCH  45  47
ENDBRANCH  44  45
ENDBRANCH  43  44
ENDBRANCH  27  43
BRANCH  24  49
ATOM     49  C   UNK d   0      22.450  12.266  -7.206  0.00  0.00     0.052 C 
BRANCH  49  50
ATOM     50  C   UNK d   0      23.387  12.266  -8.386  0.00  0.00     0.115 C 
BRANCH  50  51
ATOM     51  C   UNK d   0      23.368  13.437  -9.251  0.00  0.00     0.139 C 
ATOM     52  O   UNK d   0      24.355  14.199  -9.381  0.00  0.00    -0.650 OA
BRANCH  51  53
ATOM     53  O   UNK d   0      22.220  13.743  -9.967  0.00  0.00    -0.776 OA
ATOM     54  H   UNK d   0      22.212  14.586 -10.515  0.00  0.00     0.167 HD
ENDBRANCH  51  53
ENDBRANCH  50  51
ENDBRANCH  49  50
ENDBRANCH  24  49
BRANCH  21  55
ATOM     55  C   UNK d   0      23.785  10.157  -5.385  0.00  0.00     0.151 C 
BRANCH  55  56
ATOM     56  C   UNK d   0      22.722   9.494  -4.613  0.00  0.00     0.143 C 
ATOM     57  O   UNK d   0      21.598   9.244  -5.090  0.00  0.00    -0.650 OA
BRANCH  56  58
ATOM     58  O   UNK d   0      23.003   9.138  -3.295  0.00  0.00    -0.776 OA
ATOM     59  H   UNK d   0      22.233   8.654  -2.801  0.00  0.00     0.167 HD
ENDBRANCH  56  58
ENDBRANCH  55  56
ENDBRANCH  21  55
BRANCH  18  60
ATOM     60  C   UNK d   0      24.882  10.864  -0.179  0.00  0.00     0.151 C 
BRANCH  60  61
ATOM     61  C   UNK d   0      23.429  11.027  -0.020  0.00  0.00     0.143 C 
ATOM     62  O   UNK d   0      22.792  11.018   1.034  0.00  0.00    -0.650 OA
BRANCH  61  63
ATOM     63  O   UNK d   0      22.708  11.214  -1.224  0.00  0.00    -0.776 OA
ATOM     64  H   UNK d   0      22.387  12.125  -1.500  0.00  0.00     0.167 HD
ENDBRANCH  61  63
ENDBRANCH  60  61
ENDBRANCH  18  60
BRANCH  14  65
ATOM     65  C   UNK d   0      25.978  12.959   1.724  0.00  0.00     0.052 C 
BRANCH  65  66
ATOM     66  C   UNK d   0      24.702  13.191   2.453  0.00  0.00     0.115 C 
BRANCH  66  67
ATOM     67  C   UNK d   0      23.932  14.372   2.179  0.00  0.00     0.139 C 
ATOM     68  O   UNK d   0      22.839  14.250   1.513  0.00  0.00    -0.650 OA
BRANCH  67  69
ATOM     69  O   UNK d   0      24.220  15.684   2.553  0.00  0.00    -0.776 OA
ATOM     70  H   UNK d   0      23.566  16.401   2.208  0.00  0.00     0.167 HD
ENDBRANCH  67  69
ENDBRANCH  66  67
ENDBRANCH  65  66
ENDBRANCH  14  65
ENDBRANCH   6   7
ENDBRANCH   5   6
ENDBRANCH   2   5
TORSDOF 28
ENDMDL
MODEL 15
REMARK VINA RESULT:      -7.1     27.200     30.145
REMARK  28 active torsions:
REMARK  status: ('A' for Active; 'I' for Inactive)
REMARK    1  A    between atoms: C_2  and  O_3 
REMARK    2  A    between atoms: C_2  and  C_4 
REMARK    3  A    between atoms: C_4  and  C_5 
REMARK    4  A    between atoms: C_5  and  C_6 
REMARK    5  A    between atoms: C_7  and  C_8 
REMARK    6  A    between atoms: C_8  and  C_9 
REMARK    7  A    between atoms: C_9  and  O_11 
REMARK    8  A    between atoms: C_28  and  C_29 
REMARK    9  A    between atoms: C_29  and  C_30 
REMARK   10  A    between atoms: C_30  and  O_32 
REMARK   11  A    between atoms: C_33  and  C_34 
REMARK   12  A    between atoms: C_34  and  C_35 
REMARK   13  A    between atoms: C_35  and  C_36 
REMARK   14  A    between atoms: C_36  and  O_38 
REMARK   15  A    between atoms: C_39  and  C_40 
REMARK   16  A    between atoms: C_40  and  C_41 
REMARK   17  A    between atoms: C_41  and  C_42 
REMARK   18  A    between atoms: C_42  and  O_44 
REMARK   19  A    between atoms: C_45  and  C_46 
REMARK   20  A    between atoms: C_46  and  C_47 
REMARK   21  A    between atoms: C_47  and  O_49 
REMARK   22  A    between atoms: C_50  and  C_51 
REMARK   23  A    between atoms: C_51  and  C_52 
REMARK   24  A    between atoms: C_52  and  O_54 
REMARK   25  A    between atoms: C_55  and  C_56 
REMARK   26  A    between atoms: C_56  and  C_57 
REMARK   27  A    between atoms: C_57  and  C_58 
REMARK   28  A    between atoms: C_58  and  O_60 
ROOT
ATOM      1  O   UNK d   0      12.113  -2.410  10.636  0.00  0.00    -0.650 OA
ATOM      2  C   UNK d   0      12.728  -1.472  11.190  0.00  0.00     0.139 C 
ENDROOT
BRANCH   2   3
ATOM      3  O   UNK d   0      12.304  -1.021  12.417  0.00  0.00    -0.776 OA
ATOM      4  H   UNK d   0      12.946  -0.966  13.209  0.00  0.00     0.167 HD
ENDBRANCH   2   3
BRANCH   2   5
ATOM      5  C   UNK d   0      13.908  -0.853  10.522  0.00  0.00     0.115 C 
BRANCH   5   6
ATOM      6  C   UNK d   0      15.145  -1.074  11.349  0.00  0.00     0.052 C 
BRANCH   6   7
ATOM      7  C   UNK d   0      16.285  -1.653  10.546  0.00  0.00    -0.020 A 
ATOM      8  C   UNK d   0      16.396  -2.871  10.079  0.00  0.00    -0.011 A 
ATOM      9  C   UNK d   0      17.666  -2.965   9.379  0.00  0.00     0.067 A 
ATOM     10  C   UNK d   0      18.355  -3.955   8.661  0.00  0.00     0.062 C 
ATOM     11  N   UNK d   0      18.266  -1.760   9.474  0.00  0.00    -0.248 NA
ATOM     12  C   UNK d   0      19.453  -3.776   7.813  0.00  0.00     0.041 A 
ATOM     13  N   UNK d   0      20.562  -3.023   7.945  0.00  0.00    -0.355 N 
ATOM     14  C   UNK d   0      19.458  -4.417   6.561  0.00  0.00    -0.022 A 
ATOM     15  C   UNK d   0      21.265  -3.163   6.806  0.00  0.00     0.042 A 
ATOM     16  H   UNK d   0      20.850  -2.420   8.834  0.00  0.00     0.166 HD
ATOM     17  C   UNK d   0      22.497  -2.598   6.417  0.00  0.00     0.062 C 
ATOM     18  C   UNK d   0      20.605  -4.029   5.913  0.00  0.00    -0.013 A 
ATOM     19  C   UNK d   0      22.931  -1.304   6.548  0.00  0.00     0.067 A 
ATOM     20  N   UNK d   0      22.196  -0.494   7.314  0.00  0.00    -0.248 NA
ATOM     21  C   UNK d   0      24.041  -0.518   6.035  0.00  0.00    -0.011 A 
ATOM     22  C   UNK d   0      22.743   0.766   7.337  0.00  0.00     0.066 A 
ATOM     23  C   UNK d   0      22.098   1.704   8.130  0.00  0.00     0.062 C 
ATOM     24  C   UNK d   0      23.923   0.694   6.497  0.00  0.00    -0.020 A 
ATOM     25  C   UNK d   0      21.003   1.501   8.984  0.00  0.00     0.041 A 
ATOM     26  N   UNK d   0      19.894   0.764   8.846  0.00  0.00    -0.355 N 
ATOM     27  C   UNK d   0      21.001   2.141  10.242  0.00  0.00    -0.022 A 
ATOM     28  C   UNK d   0      19.186   0.909   9.978  0.00  0.00     0.042 A 
ATOM     29  H   UNK d   0      19.600   0.167   7.948  0.00  0.00     0.166 HD
ATOM     30  C   UNK d   0      17.956   0.361  10.373  0.00  0.00     0.062 C 
ATOM     31  C   UNK d   0      19.856   1.771  10.878  0.00  0.00    -0.013 A 
ATOM     32  C   UNK d   0      17.487  -0.926  10.163  0.00  0.00     0.066 A 
BRANCH   8  33
ATOM     33  C   UNK d   0      15.422  -3.968  10.230  0.00  0.00     0.151 C 
BRANCH  33  34
ATOM     34  C   UNK d   0      16.060  -5.255  10.563  0.00  0.00     0.143 C 
ATOM     35  O   UNK d   0      15.929  -6.240   9.822  0.00  0.00    -0.650 OA
BRANCH  34  36
ATOM     36  O   UNK d   0      16.807  -5.361  11.713  0.00  0.00    -0.776 OA
ATOM     37  H   UNK d   0      17.609  -4.740  11.888  0.00  0.00     0.167 HD
ENDBRANCH  34  36
ENDBRANCH  33  34
ENDBRANCH   8  33
BRANCH  31  38
ATOM     38  C   UNK d   0      19.427   2.199  12.262  0.00  0.00     0.151 C 
BRANCH  38  39
ATOM     39  C   UNK d   0      20.158   1.521  13.311  0.00  0.00     0.143 C 
ATOM     40  O   UNK d   0      20.276   0.284  13.348  0.00  0.00    -0.650 OA
BRANCH  39  41
ATOM     41  O   UNK d   0      20.759   2.270  14.323  0.00  0.00    -0.776 OA
ATOM     42  H   UNK d   0      21.781   2.345  14.297  0.00  0.00     0.167 HD
ENDBRANCH  39  41
ENDBRANCH  38  39
ENDBRANCH  31  38
BRANCH  27  43
ATOM     43  C   UNK d   0      22.024   3.071  10.846  0.00  0.00     0.052 C 
BRANCH  43  44
ATOM     44  C   UNK d   0      21.784   4.508  10.516  0.00  0.00     0.115 C 
BRANCH  44  45
ATOM     45  C   UNK d   0      21.569   5.210  11.808  0.00  0.00     0.139 C 
ATOM     46  O   UNK d   0      21.940   4.637  12.862  0.00  0.00    -0.650 OA
BRANCH  45  47
ATOM     47  O   UNK d   0      20.988   6.457  11.893  0.00  0.00    -0.776 OA
ATOM     48  H   UNK d   0      21.539   7.330  11.928  0.00  0.00     0.167 HD
ENDBRANCH  45  47
ENDBRANCH  44  45
ENDBRANCH  43  44
ENDBRANCH  27  43
BRANCH  24  49
ATOM     49  C   UNK d   0      24.854   1.809   6.258  0.00  0.00     0.052 C 
BRANCH  49  50
ATOM     50  C   UNK d   0      25.632   2.121   7.511  0.00  0.00     0.115 C 
BRANCH  50  51
ATOM     51  C   UNK d   0      26.930   1.478   7.665  0.00  0.00     0.139 C 
ATOM     52  O   UNK d   0      27.492   1.348   8.778  0.00  0.00    -0.650 OA
BRANCH  51  53
ATOM     53  O   UNK d   0      27.589   0.987   6.548  0.00  0.00    -0.776 OA
ATOM     54  H   UNK d   0      28.569   1.187   6.448  0.00  0.00     0.167 HD
ENDBRANCH  51  53
ENDBRANCH  50  51
ENDBRANCH  49  50
ENDBRANCH  24  49
BRANCH  21  55
ATOM     55  C   UNK d   0      25.105  -1.060   5.140  0.00  0.00     0.151 C 
BRANCH  55  56
ATOM     56  C   UNK d   0      24.622  -1.257   3.765  0.00  0.00     0.143 C 
ATOM     57  O   UNK d   0      24.423  -0.311   2.978  0.00  0.00    -0.650 OA
BRANCH  56  58
ATOM     58  O   UNK d   0      24.383  -2.564   3.342  0.00  0.00    -0.776 OA
ATOM     59  H   UNK d   0      24.421  -2.704   2.316  0.00  0.00     0.167 HD
ENDBRANCH  56  58
ENDBRANCH  55  56
ENDBRANCH  21  55
BRANCH  18  60
ATOM     60  C   UNK d   0      21.010  -4.476   4.530  0.00  0.00     0.151 C 
BRANCH  60  61
ATOM     61  C   UNK d   0      20.648  -3.372   3.628  0.00  0.00     0.143 C 
ATOM     62  O   UNK d   0      21.370  -2.443   3.265  0.00  0.00    -0.650 OA
BRANCH  61  63
ATOM     63  O   UNK d   0      19.320  -3.406   3.137  0.00  0.00    -0.776 OA
ATOM     64  H   UNK d   0      18.831  -2.559   2.906  0.00  0.00     0.167 HD
ENDBRANCH  61  63
ENDBRANCH  60  61
ENDBRANCH  18  60
BRANCH  14  65
ATOM     65  C   UNK d   0      18.520  -5.434   5.976  0.00  0.00     0.052 C 
BRANCH  65  66
ATOM     66  C   UNK d   0      18.765  -6.811   6.483  0.00  0.00     0.115 C 
BRANCH  66  67
ATOM     67  C   UNK d   0      17.674  -7.740   6.577  0.00  0.00     0.139 C 
ATOM     68  O   UNK d   0      17.241  -8.290   5.498  0.00  0.00    -0.650 OA
BRANCH  67  69
ATOM     69  O   UNK d   0      16.992  -8.141   7.725  0.00  0.00    -0.776 OA
ATOM     70  H   UNK d   0      17.238  -7.639   8.591  0.00  0.00     0.167 HD
ENDBRANCH  67  69
ENDBRANCH  66  67
ENDBRANCH  65  66
ENDBRANCH  14  65
ENDBRANCH   6   7
ENDBRANCH   5   6
ENDBRANCH   2   5
TORSDOF 28
ENDMDL
MODEL 16
REMARK VINA RESULT:      -7.0     11.342     15.276
REMARK  28 active torsions:
REMARK  status: ('A' for Active; 'I' for Inactive)
REMARK    1  A    between atoms: C_2  and  O_3 
REMARK    2  A    between atoms: C_2  and  C_4 
REMARK    3  A    between atoms: C_4  and  C_5 
REMARK    4  A    between atoms: C_5  and  C_6 
REMARK    5  A    between atoms: C_7  and  C_8 
REMARK    6  A    between atoms: C_8  and  C_9 
REMARK    7  A    between atoms: C_9  and  O_11 
REMARK    8  A    between atoms: C_28  and  C_29 
REMARK    9  A    between atoms: C_29  and  C_30 
REMARK   10  A    between atoms: C_30  and  O_32 
REMARK   11  A    between atoms: C_33  and  C_34 
REMARK   12  A    between atoms: C_34  and  C_35 
REMARK   13  A    between atoms: C_35  and  C_36 
REMARK   14  A    between atoms: C_36  and  O_38 
REMARK   15  A    between atoms: C_39  and  C_40 
REMARK   16  A    between atoms: C_40  and  C_41 
REMARK   17  A    between atoms: C_41  and  C_42 
REMARK   18  A    between atoms: C_42  and  O_44 
REMARK   19  A    between atoms: C_45  and  C_46 
REMARK   20  A    between atoms: C_46  and  C_47 
REMARK   21  A    between atoms: C_47  and  O_49 
REMARK   22  A    between atoms: C_50  and  C_51 
REMARK   23  A    between atoms: C_51  and  C_52 
REMARK   24  A    between atoms: C_52  and  O_54 
REMARK   25  A    between atoms: C_55  and  C_56 
REMARK   26  A    between atoms: C_56  and  C_57 
REMARK   27  A    between atoms: C_57  and  C_58 
REMARK   28  A    between atoms: C_58  and  O_60 
ROOT
ATOM      1  O   UNK d   0      24.026  21.002  -6.726  0.00  0.00    -0.650 OA
ATOM      2  C   UNK d   0      23.377  20.204  -6.014  0.00  0.00     0.139 C 
ENDROOT
BRANCH   2   3
ATOM      3  O   UNK d   0      22.648  20.688  -4.954  0.00  0.00    -0.776 OA
ATOM      4  H   UNK d   0      21.626  20.656  -4.958  0.00  0.00     0.167 HD
ENDBRANCH   2   3
BRANCH   2   5
ATOM      5  C   UNK d   0      23.397  18.745  -6.314  0.00  0.00     0.115 C 
BRANCH   5   6
ATOM      6  C   UNK d   0      24.728  18.156  -5.932  0.00  0.00     0.052 C 
BRANCH   6   7
ATOM      7  C   UNK d   0      24.896  18.022  -4.437  0.00  0.00    -0.020 A 
ATOM      8  C   UNK d   0      25.554  18.818  -3.633  0.00  0.00    -0.011 A 
ATOM      9  C   UNK d   0      25.444  18.281  -2.287  0.00  0.00     0.067 A 
ATOM     10  C   UNK d   0      25.887  18.654  -1.009  0.00  0.00     0.062 C 
ATOM     11  N   UNK d   0      24.707  17.153  -2.365  0.00  0.00    -0.248 NA
ATOM     12  C   UNK d   0      25.444  18.154   0.221  0.00  0.00     0.041 A 
ATOM     13  N   UNK d   0      25.174  16.897   0.621  0.00  0.00    -0.355 N 
ATOM     14  C   UNK d   0      25.155  19.058   1.259  0.00  0.00    -0.022 A 
ATOM     15  C   UNK d   0      24.714  16.981   1.884  0.00  0.00     0.042 A 
ATOM     16  H   UNK d   0      25.324  15.967   0.030  0.00  0.00     0.166 HD
ATOM     17  C   UNK d   0      24.289  15.971   2.770  0.00  0.00     0.062 C 
ATOM     18  C   UNK d   0      24.688  18.320   2.318  0.00  0.00    -0.013 A 
ATOM     19  C   UNK d   0      23.474  14.896   2.526  0.00  0.00     0.067 A 
ATOM     20  N   UNK d   0      23.187  14.633   1.248  0.00  0.00    -0.248 NA
ATOM     21  C   UNK d   0      22.780  13.907   3.333  0.00  0.00    -0.011 A 
ATOM     22  C   UNK d   0      22.354  13.544   1.161  0.00  0.00     0.066 A 
ATOM     23  C   UNK d   0      22.005  13.136  -0.117  0.00  0.00     0.062 C 
ATOM     24  C   UNK d   0      22.123  13.121   2.528  0.00  0.00    -0.020 A 
ATOM     25  C   UNK d   0      22.471  13.644  -1.340  0.00  0.00     0.041 A 
ATOM     26  N   UNK d   0      22.725  14.895  -1.743  0.00  0.00    -0.355 N 
ATOM     27  C   UNK d   0      22.764  12.735  -2.380  0.00  0.00    -0.022 A 
ATOM     28  C   UNK d   0      23.175  14.814  -3.005  0.00  0.00     0.042 A 
ATOM     29  H   UNK d   0      22.563  15.829  -1.151  0.00  0.00     0.166 HD
ATOM     30  C   UNK d   0      23.592  15.811  -3.901  0.00  0.00     0.062 C 
ATOM     31  C   UNK d   0      23.211  13.467  -3.437  0.00  0.00    -0.013 A 
ATOM     32  C   UNK d   0      24.346  16.942  -3.631  0.00  0.00     0.066 A 
BRANCH   8  33
ATOM     33  C   UNK d   0      26.287  20.043  -4.005  0.00  0.00     0.151 C 
BRANCH  33  34
ATOM     34  C   UNK d   0      25.820  21.232  -3.269  0.00  0.00     0.143 C 
ATOM     35  O   UNK d   0      24.611  21.485  -3.170  0.00  0.00    -0.650 OA
BRANCH  34  36
ATOM     36  O   UNK d   0      26.742  22.071  -2.688  0.00  0.00    -0.776 OA
ATOM     37  H   UNK d   0      27.618  21.708  -2.289  0.00  0.00     0.167 HD
ENDBRANCH  34  36
ENDBRANCH  33  34
ENDBRANCH   8  33
BRANCH  31  38
ATOM     38  C   UNK d   0      23.659  12.922  -4.773  0.00  0.00     0.151 C 
BRANCH  38  39
ATOM     39  C   UNK d   0      25.053  12.533  -4.782  0.00  0.00     0.143 C 
ATOM     40  O   UNK d   0      25.925  13.167  -4.163  0.00  0.00    -0.650 OA
BRANCH  39  41
ATOM     41  O   UNK d   0      25.447  11.408  -5.506  0.00  0.00    -0.776 OA
ATOM     42  H   UNK d   0      24.935  10.539  -5.323  0.00  0.00     0.167 HD
ENDBRANCH  39  41
ENDBRANCH  38  39
ENDBRANCH  31  38
BRANCH  27  43
ATOM     43  C   UNK d   0      22.636  11.233  -2.405  0.00  0.00     0.052 C 
BRANCH  43  44
ATOM     44  C   UNK d   0      23.835  10.528  -1.859  0.00  0.00     0.115 C 
BRANCH  44  45
ATOM     45  C   UNK d   0      24.181   9.461  -2.834  0.00  0.00     0.139 C 
ATOM     46  O   UNK d   0      23.587   9.456  -3.941  0.00  0.00    -0.650 OA
BRANCH  45  47
ATOM     47  O   UNK d   0      25.124   8.490  -2.576  0.00  0.00    -0.776 OA
ATOM     48  H   UNK d   0      25.386   7.767  -3.265  0.00  0.00     0.167 HD
ENDBRANCH  45  47
ENDBRANCH  44  45
ENDBRANCH  43  44
ENDBRANCH  27  43
BRANCH  24  49
ATOM     49  C   UNK d   0      21.312  11.956   2.922  0.00  0.00     0.052 C 
BRANCH  49  50
ATOM     50  C   UNK d   0      19.851  12.224   2.669  0.00  0.00     0.115 C 
BRANCH  50  51
ATOM     51  C   UNK d   0      19.150  13.057   3.637  0.00  0.00     0.139 C 
ATOM     52  O   UNK d   0      18.701  12.607   4.717  0.00  0.00    -0.650 OA
BRANCH  51  53
ATOM     53  O   UNK d   0      18.960  14.404   3.371  0.00  0.00    -0.776 OA
ATOM     54  H   UNK d   0      18.250  14.662   2.708  0.00  0.00     0.167 HD
ENDBRANCH  51  53
ENDBRANCH  50  51
ENDBRANCH  49  50
ENDBRANCH  24  49
BRANCH  21  55
ATOM     55  C   UNK d   0      22.848  13.847   4.823  0.00  0.00     0.151 C 
BRANCH  55  56
ATOM     56  C   UNK d   0      22.063  14.918   5.454  0.00  0.00     0.143 C 
ATOM     57  O   UNK d   0      22.514  16.065   5.642  0.00  0.00    -0.650 OA
BRANCH  56  58
ATOM     58  O   UNK d   0      20.761  14.620   5.853  0.00  0.00    -0.776 OA
ATOM     59  H   UNK d   0      20.208  14.077   5.165  0.00  0.00     0.167 HD
ENDBRANCH  56  58
ENDBRANCH  55  56
ENDBRANCH  21  55
BRANCH  18  60
ATOM     60  C   UNK d   0      24.250  18.892   3.644  0.00  0.00     0.151 C 
BRANCH  60  61
ATOM     61  C   UNK d   0      22.841  19.280   3.471  0.00  0.00     0.143 C 
ATOM     62  O   UNK d   0      22.410  20.388   3.153  0.00  0.00    -0.650 OA
BRANCH  61  63
ATOM     63  O   UNK d   0      21.900  18.247   3.701  0.00  0.00    -0.776 OA
ATOM     64  H   UNK d   0      21.516  18.090   4.616  0.00  0.00     0.167 HD
ENDBRANCH  61  63
ENDBRANCH  60  61
ENDBRANCH  18  60
BRANCH  14  65
ATOM     65  C   UNK d   0      25.379  20.541   1.360  0.00  0.00     0.052 C 
BRANCH  65  66
ATOM     66  C   UNK d   0      26.774  20.894   1.737  0.00  0.00     0.115 C 
BRANCH  66  67
ATOM     67  C   UNK d   0      27.699  21.318   0.724  0.00  0.00     0.139 C 
ATOM     68  O   UNK d   0      28.632  20.508   0.368  0.00  0.00    -0.650 OA
BRANCH  67  69
ATOM     69  O   UNK d   0      27.725  22.537   0.048  0.00  0.00    -0.776 OA
ATOM     70  H   UNK d   0      26.897  23.136   0.173  0.00  0.00     0.167 HD
ENDBRANCH  67  69
ENDBRANCH  66  67
ENDBRANCH  65  66
ENDBRANCH  14  65
ENDBRANCH   6   7
ENDBRANCH   5   6
ENDBRANCH   2   5
TORSDOF 28
ENDMDL
MODEL 17
REMARK VINA RESULT:      -7.0     25.194     28.613
REMARK  28 active torsions:
REMARK  status: ('A' for Active; 'I' for Inactive)
REMARK    1  A    between atoms: C_2  and  O_3 
REMARK    2  A    between atoms: C_2  and  C_4 
REMARK    3  A    between atoms: C_4  and  C_5 
REMARK    4  A    between atoms: C_5  and  C_6 
REMARK    5  A    between atoms: C_7  and  C_8 
REMARK    6  A    between atoms: C_8  and  C_9 
REMARK    7  A    between atoms: C_9  and  O_11 
REMARK    8  A    between atoms: C_28  and  C_29 
REMARK    9  A    between atoms: C_29  and  C_30 
REMARK   10  A    between atoms: C_30  and  O_32 
REMARK   11  A    between atoms: C_33  and  C_34 
REMARK   12  A    between atoms: C_34  and  C_35 
REMARK   13  A    between atoms: C_35  and  C_36 
REMARK   14  A    between atoms: C_36  and  O_38 
REMARK   15  A    between atoms: C_39  and  C_40 
REMARK   16  A    between atoms: C_40  and  C_41 
REMARK   17  A    between atoms: C_41  and  C_42 
REMARK   18  A    between atoms: C_42  and  O_44 
REMARK   19  A    between atoms: C_45  and  C_46 
REMARK   20  A    between atoms: C_46  and  C_47 
REMARK   21  A    between atoms: C_47  and  O_49 
REMARK   22  A    between atoms: C_50  and  C_51 
REMARK   23  A    between atoms: C_51  and  C_52 
REMARK   24  A    between atoms: C_52  and  O_54 
REMARK   25  A    between atoms: C_55  and  C_56 
REMARK   26  A    between atoms: C_56  and  C_57 
REMARK   27  A    between atoms: C_57  and  C_58 
REMARK   28  A    between atoms: C_58  and  O_60 
ROOT
ATOM      1  O   UNK d   0      -2.951   1.414 -13.341  0.00  0.00    -0.650 OA
ATOM      2  C   UNK d   0      -2.298   1.939 -12.412  0.00  0.00     0.139 C 
ENDROOT
BRANCH   2   3
ATOM      3  O   UNK d   0      -2.465   3.276 -12.144  0.00  0.00    -0.776 OA
ATOM      4  H   UNK d   0      -2.862   3.909 -12.841  0.00  0.00     0.167 HD
ENDBRANCH   2   3
BRANCH   2   5
ATOM      5  C   UNK d   0      -1.348   1.119 -11.608  0.00  0.00     0.115 C 
BRANCH   5   6
ATOM      6  C   UNK d   0      -2.083   0.002 -10.919  0.00  0.00     0.052 C 
BRANCH   6   7
ATOM      7  C   UNK d   0      -1.707  -0.131  -9.463  0.00  0.00    -0.020 A 
ATOM      8  C   UNK d   0      -2.457   0.111  -8.419  0.00  0.00    -0.011 A 
ATOM      9  C   UNK d   0      -1.663  -0.149  -7.230  0.00  0.00     0.067 A 
ATOM     10  C   UNK d   0      -1.872  -0.105  -5.843  0.00  0.00     0.062 C 
ATOM     11  N   UNK d   0      -0.439  -0.540  -7.643  0.00  0.00    -0.248 NA
ATOM     12  C   UNK d   0      -1.064  -0.662  -4.846  0.00  0.00     0.041 A 
ATOM     13  N   UNK d   0       0.274  -0.684  -4.699  0.00  0.00    -0.355 N 
ATOM     14  C   UNK d   0      -1.671  -1.390  -3.806  0.00  0.00    -0.022 A 
ATOM     15  C   UNK d   0       0.533  -1.414  -3.597  0.00  0.00     0.042 A 
ATOM     16  H   UNK d   0       1.021  -0.178  -5.350  0.00  0.00     0.166 HD
ATOM     17  C   UNK d   0       1.760  -1.751  -2.992  0.00  0.00     0.062 C 
ATOM     18  C   UNK d   0      -0.662  -1.874  -3.010  0.00  0.00    -0.013 A 
ATOM     19  C   UNK d   0       2.918  -2.193  -3.578  0.00  0.00     0.067 A 
ATOM     20  N   UNK d   0       2.989  -2.118  -4.910  0.00  0.00    -0.248 NA
ATOM     21  C   UNK d   0       4.168  -2.772  -3.115  0.00  0.00    -0.011 A 
ATOM     22  C   UNK d   0       4.193  -2.608  -5.351  0.00  0.00     0.066 A 
ATOM     23  C   UNK d   0       4.416  -2.555  -6.719  0.00  0.00     0.062 C 
ATOM     24  C   UNK d   0       4.909  -3.016  -4.158  0.00  0.00    -0.020 A 
ATOM     25  C   UNK d   0       3.597  -1.979  -7.703  0.00  0.00     0.041 A 
ATOM     26  N   UNK d   0       2.268  -1.969  -7.857  0.00  0.00    -0.355 N 
ATOM     27  C   UNK d   0       4.207  -1.245  -8.744  0.00  0.00    -0.022 A 
ATOM     28  C   UNK d   0       2.008  -1.250  -8.960  0.00  0.00     0.042 A 
ATOM     29  H   UNK d   0       1.520  -2.488  -7.208  0.00  0.00     0.166 HD
ATOM     30  C   UNK d   0       0.793  -0.915  -9.579  0.00  0.00     0.062 C 
ATOM     31  C   UNK d   0       3.209  -0.779  -9.543  0.00  0.00    -0.013 A 
ATOM     32  C   UNK d   0      -0.401  -0.551  -8.977  0.00  0.00     0.066 A 
BRANCH   8  33
ATOM     33  C   UNK d   0      -3.858   0.572  -8.424  0.00  0.00     0.151 C 
BRANCH  33  34
ATOM     34  C   UNK d   0      -3.989   1.997  -8.777  0.00  0.00     0.143 C 
ATOM     35  O   UNK d   0      -4.415   2.341  -9.889  0.00  0.00    -0.650 OA
BRANCH  34  36
ATOM     36  O   UNK d   0      -3.630   2.956  -7.858  0.00  0.00    -0.776 OA
ATOM     37  H   UNK d   0      -4.285   3.268  -7.128  0.00  0.00     0.167 HD
ENDBRANCH  34  36
ENDBRANCH  33  34
ENDBRANCH   8  33
BRANCH  31  38
ATOM     38  C   UNK d   0       3.380   0.072 -10.779  0.00  0.00     0.151 C 
BRANCH  38  39
ATOM     39  C   UNK d   0       3.395  -0.707 -12.000  0.00  0.00     0.143 C 
ATOM     40  O   UNK d   0       2.443  -0.707 -12.800  0.00  0.00    -0.650 OA
BRANCH  39  41
ATOM     41  O   UNK d   0       4.510  -1.488 -12.302  0.00  0.00    -0.776 OA
ATOM     42  H   UNK d   0       4.747  -2.230 -11.636  0.00  0.00     0.167 HD
ENDBRANCH  39  41
ENDBRANCH  38  39
ENDBRANCH  31  38
BRANCH  27  43
ATOM     43  C   UNK d   0       5.669  -0.979  -9.000  0.00  0.00     0.052 C 
BRANCH  43  44
ATOM     44  C   UNK d   0       6.130   0.343  -8.477  0.00  0.00     0.115 C 
BRANCH  44  45
ATOM     45  C   UNK d   0       6.767   0.081  -7.161  0.00  0.00     0.139 C 
ATOM     46  O   UNK d   0       6.110   0.344  -6.123  0.00  0.00    -0.650 OA
BRANCH  45  47
ATOM     47  O   UNK d   0       8.036  -0.441  -7.035  0.00  0.00    -0.776 OA
ATOM     48  H   UNK d   0       8.274  -1.180  -6.355  0.00  0.00     0.167 HD
ENDBRANCH  45  47
ENDBRANCH  44  45
ENDBRANCH  43  44
ENDBRANCH  27  43
BRANCH  24  49
ATOM     49  C   UNK d   0       6.274  -3.569  -4.144  0.00  0.00     0.052 C 
BRANCH  49  50
ATOM     50  C   UNK d   0       7.289  -2.459  -4.052  0.00  0.00     0.115 C 
BRANCH  50  51
ATOM     51  C   UNK d   0       8.335  -2.596  -3.048  0.00  0.00     0.139 C 
ATOM     52  O   UNK d   0       9.537  -2.324  -3.282  0.00  0.00    -0.650 OA
BRANCH  51  53
ATOM     53  O   UNK d   0       8.013  -3.047  -1.778  0.00  0.00    -0.776 OA
ATOM     54  H   UNK d   0       8.371  -2.539  -0.988  0.00  0.00     0.167 HD
ENDBRANCH  51  53
ENDBRANCH  50  51
ENDBRANCH  49  50
ENDBRANCH  24  49
BRANCH  21  55
ATOM     55  C   UNK d   0       4.495  -3.016  -1.679  0.00  0.00     0.151 C 
BRANCH  55  56
ATOM     56  C   UNK d   0       4.194  -4.397  -1.273  0.00  0.00     0.143 C 
ATOM     57  O   UNK d   0       3.343  -5.101  -1.852  0.00  0.00    -0.650 OA
BRANCH  56  58
ATOM     58  O   UNK d   0       4.899  -4.924  -0.192  0.00  0.00    -0.776 OA
ATOM     59  H   UNK d   0       5.914  -4.716  -0.191  0.00  0.00     0.167 HD
ENDBRANCH  56  58
ENDBRANCH  55  56
ENDBRANCH  21  55
BRANCH  18  60
ATOM     60  C   UNK d   0      -0.864  -2.720  -1.778  0.00  0.00     0.151 C 
BRANCH  60  61
ATOM     61  C   UNK d   0      -0.849  -4.116  -2.240  0.00  0.00     0.143 C 
ATOM     62  O   UNK d   0      -1.812  -4.783  -2.621  0.00  0.00    -0.650 OA
BRANCH  61  63
ATOM     63  O   UNK d   0       0.423  -4.738  -2.239  0.00  0.00    -0.776 OA
ATOM     64  H   UNK d   0       0.988  -4.765  -3.069  0.00  0.00     0.167 HD
ENDBRANCH  61  63
ENDBRANCH  60  61
ENDBRANCH  18  60
BRANCH  14  65
ATOM     65  C   UNK d   0      -3.120  -1.578  -3.456  0.00  0.00     0.052 C 
BRANCH  65  66
ATOM     66  C   UNK d   0      -3.747  -0.350  -2.896  0.00  0.00     0.115 C 
BRANCH  66  67
ATOM     67  C   UNK d   0      -3.288   0.173  -1.640  0.00  0.00     0.139 C 
ATOM     68  O   UNK d   0      -3.994  -0.048  -0.588  0.00  0.00    -0.650 OA
BRANCH  67  69
ATOM     69  O   UNK d   0      -2.136   0.919  -1.396  0.00  0.00    -0.776 OA
ATOM     70  H   UNK d   0      -1.270   0.376  -1.265  0.00  0.00     0.167 HD
ENDBRANCH  67  69
ENDBRANCH  66  67
ENDBRANCH  65  66
ENDBRANCH  14  65
ENDBRANCH   6   7
ENDBRANCH   5   6
ENDBRANCH   2   5
TORSDOF 28
ENDMDL
MODEL 18
REMARK VINA RESULT:      -7.0     27.203     29.304
REMARK  28 active torsions:
REMARK  status: ('A' for Active; 'I' for Inactive)
REMARK    1  A    between atoms: C_2  and  O_3 
REMARK    2  A    between atoms: C_2  and  C_4 
REMARK    3  A    between atoms: C_4  and  C_5 
REMARK    4  A    between atoms: C_5  and  C_6 
REMARK    5  A    between atoms: C_7  and  C_8 
REMARK    6  A    between atoms: C_8  and  C_9 
REMARK    7  A    between atoms: C_9  and  O_11 
REMARK    8  A    between atoms: C_28  and  C_29 
REMARK    9  A    between atoms: C_29  and  C_30 
REMARK   10  A    between atoms: C_30  and  O_32 
REMARK   11  A    between atoms: C_33  and  C_34 
REMARK   12  A    between atoms: C_34  and  C_35 
REMARK   13  A    between atoms: C_35  and  C_36 
REMARK   14  A    between atoms: C_36  and  O_38 
REMARK   15  A    between atoms: C_39  and  C_40 
REMARK   16  A    between atoms: C_40  and  C_41 
REMARK   17  A    between atoms: C_41  and  C_42 
REMARK   18  A    between atoms: C_42  and  O_44 
REMARK   19  A    between atoms: C_45  and  C_46 
REMARK   20  A    between atoms: C_46  and  C_47 
REMARK   21  A    between atoms: C_47  and  O_49 
REMARK   22  A    between atoms: C_50  and  C_51 
REMARK   23  A    between atoms: C_51  and  C_52 
REMARK   24  A    between atoms: C_52  and  O_54 
REMARK   25  A    between atoms: C_55  and  C_56 
REMARK   26  A    between atoms: C_56  and  C_57 
REMARK   27  A    between atoms: C_57  and  C_58 
REMARK   28  A    between atoms: C_58  and  O_60 
ROOT
ATOM      1  O   UNK d   0       5.259  -5.705  -1.886  0.00  0.00    -0.650 OA
ATOM      2  C   UNK d   0       4.502  -4.934  -1.255  0.00  0.00     0.139 C 
ENDROOT
BRANCH   2   3
ATOM      3  O   UNK d   0       4.863  -4.516   0.003  0.00  0.00    -0.776 OA
ATOM      4  H   UNK d   0       5.793  -4.133   0.185  0.00  0.00     0.167 HD
ENDBRANCH   2   3
BRANCH   2   5
ATOM      5  C   UNK d   0       3.222  -4.477  -1.866  0.00  0.00     0.115 C 
BRANCH   5   6
ATOM      6  C   UNK d   0       3.137  -2.975  -1.828  0.00  0.00     0.052 C 
BRANCH   6   7
ATOM      7  C   UNK d   0       3.027  -2.364  -3.204  0.00  0.00    -0.020 A 
ATOM      8  C   UNK d   0       3.980  -2.213  -4.089  0.00  0.00    -0.011 A 
ATOM      9  C   UNK d   0       3.404  -1.570  -5.258  0.00  0.00     0.067 A 
ATOM     10  C   UNK d   0       3.865  -1.161  -6.519  0.00  0.00     0.062 C 
ATOM     11  N   UNK d   0       2.096  -1.361  -4.996  0.00  0.00    -0.248 NA
ATOM     12  C   UNK d   0       3.092  -0.807  -7.630  0.00  0.00     0.041 A 
ATOM     13  N   UNK d   0       1.978  -0.056  -7.732  0.00  0.00    -0.355 N 
ATOM     14  C   UNK d   0       3.435  -1.325  -8.891  0.00  0.00    -0.022 A 
ATOM     15  C   UNK d   0       1.602  -0.092  -9.024  0.00  0.00     0.042 A 
ATOM     16  H   UNK d   0       1.479   0.504  -6.910  0.00  0.00     0.166 HD
ATOM     17  C   UNK d   0       0.512   0.519  -9.676  0.00  0.00     0.062 C 
ATOM     18  C   UNK d   0       2.492  -0.878  -9.782  0.00  0.00    -0.013 A 
ATOM     19  C   UNK d   0      -0.798   0.593  -9.278  0.00  0.00     0.067 A 
ATOM     20  N   UNK d   0      -1.072   0.220  -8.025  0.00  0.00    -0.248 NA
ATOM     21  C   UNK d   0      -2.057   0.980  -9.894  0.00  0.00    -0.011 A 
ATOM     22  C   UNK d   0      -2.418   0.334  -7.777  0.00  0.00     0.066 A 
ATOM     23  C   UNK d   0      -2.838   0.013  -6.495  0.00  0.00     0.062 C 
ATOM     24  C   UNK d   0      -3.001   0.822  -9.012  0.00  0.00    -0.020 A 
ATOM     25  C   UNK d   0      -2.044  -0.328  -5.390  0.00  0.00     0.041 A 
ATOM     26  N   UNK d   0      -0.946  -1.086  -5.285  0.00  0.00    -0.355 N 
ATOM     27  C   UNK d   0      -2.387   0.197  -4.124  0.00  0.00    -0.022 A 
ATOM     28  C   UNK d   0      -0.574  -1.059  -3.996  0.00  0.00     0.042 A 
ATOM     29  H   UNK d   0      -0.452  -1.656  -6.110  0.00  0.00     0.166 HD
ATOM     30  C   UNK d   0       0.502  -1.669  -3.333  0.00  0.00     0.062 C 
ATOM     31  C   UNK d   0      -1.462  -0.260  -3.237  0.00  0.00    -0.013 A 
ATOM     32  C   UNK d   0       1.807  -1.817  -3.777  0.00  0.00     0.066 A 
BRANCH   8  33
ATOM     33  C   UNK d   0       5.393  -2.610  -3.944  0.00  0.00     0.151 C 
BRANCH  33  34
ATOM     34  C   UNK d   0       5.753  -3.757  -4.797  0.00  0.00     0.143 C 
ATOM     35  O   UNK d   0       6.776  -3.735  -5.496  0.00  0.00    -0.650 OA
BRANCH  34  36
ATOM     36  O   UNK d   0       4.939  -4.867  -4.816  0.00  0.00    -0.776 OA
ATOM     37  H   UNK d   0       4.148  -4.960  -4.164  0.00  0.00     0.167 HD
ENDBRANCH  34  36
ENDBRANCH  33  34
ENDBRANCH   8  33
BRANCH  31  38
ATOM     38  C   UNK d   0      -1.414   0.051  -1.759  0.00  0.00     0.151 C 
BRANCH  38  39
ATOM     39  C   UNK d   0      -2.104  -0.935  -0.954  0.00  0.00     0.143 C 
ATOM     40  O   UNK d   0      -2.081  -0.913   0.289  0.00  0.00    -0.650 OA
BRANCH  39  41
ATOM     41  O   UNK d   0      -2.824  -1.951  -1.582  0.00  0.00    -0.776 OA
ATOM     42  H   UNK d   0      -3.659  -2.292  -1.096  0.00  0.00     0.167 HD
ENDBRANCH  39  41
ENDBRANCH  38  39
ENDBRANCH  31  38
BRANCH  27  43
ATOM     43  C   UNK d   0      -3.537   1.094  -3.739  0.00  0.00     0.052 C 
BRANCH  43  44
ATOM     44  C   UNK d   0      -4.805   0.349  -3.476  0.00  0.00     0.115 C 
BRANCH  44  45
ATOM     45  C   UNK d   0      -5.846   0.966  -4.339  0.00  0.00     0.139 C 
ATOM     46  O   UNK d   0      -6.188   2.150  -4.098  0.00  0.00    -0.650 OA
BRANCH  45  47
ATOM     47  O   UNK d   0      -6.442   0.297  -5.387  0.00  0.00    -0.776 OA
ATOM     48  H   UNK d   0      -7.455   0.348  -5.580  0.00  0.00     0.167 HD
ENDBRANCH  45  47
ENDBRANCH  44  45
ENDBRANCH  43  44
ENDBRANCH  27  43
BRANCH  24  49
ATOM     49  C   UNK d   0      -4.429   1.132  -9.203  0.00  0.00     0.052 C 
BRANCH  49  50
ATOM     50  C   UNK d   0      -4.704   2.571  -8.849  0.00  0.00     0.115 C 
BRANCH  50  51
ATOM     51  C   UNK d   0      -5.404   2.826  -7.597  0.00  0.00     0.139 C 
ATOM     52  O   UNK d   0      -6.626   2.593  -7.446  0.00  0.00    -0.650 OA
BRANCH  51  53
ATOM     53  O   UNK d   0      -4.709   3.348  -6.517  0.00  0.00    -0.776 OA
ATOM     54  H   UNK d   0      -5.136   4.090  -5.990  0.00  0.00     0.167 HD
ENDBRANCH  51  53
ENDBRANCH  50  51
ENDBRANCH  49  50
ENDBRANCH  24  49
BRANCH  21  55
ATOM     55  C   UNK d   0      -2.183   1.471 -11.298  0.00  0.00     0.151 C 
BRANCH  55  56
ATOM     56  C   UNK d   0      -2.213   0.366 -12.268  0.00  0.00     0.143 C 
ATOM     57  O   UNK d   0      -1.263   0.118 -13.037  0.00  0.00    -0.650 OA
BRANCH  56  58
ATOM     58  O   UNK d   0      -3.358  -0.426 -12.315  0.00  0.00    -0.776 OA
ATOM     59  H   UNK d   0      -3.235  -1.393 -11.963  0.00  0.00     0.167 HD
ENDBRANCH  56  58
ENDBRANCH  55  56
ENDBRANCH  21  55
BRANCH  18  60
ATOM     60  C   UNK d   0       2.470  -1.204 -11.255  0.00  0.00     0.151 C 
BRANCH  60  61
ATOM     61  C   UNK d   0       1.541  -2.333 -11.406  0.00  0.00     0.143 C 
ATOM     62  O   UNK d   0       1.791  -3.528 -11.239  0.00  0.00    -0.650 OA
BRANCH  61  63
ATOM     63  O   UNK d   0       0.222  -1.983 -11.782  0.00  0.00    -0.776 OA
ATOM     64  H   UNK d   0      -0.041  -1.920 -12.750  0.00  0.00     0.167 HD
ENDBRANCH  61  63
ENDBRANCH  60  61
ENDBRANCH  18  60
BRANCH  14  65
ATOM     65  C   UNK d   0       4.630  -2.122  -9.332  0.00  0.00     0.052 C 
BRANCH  65  66
ATOM     66  C   UNK d   0       4.359  -3.582  -9.410  0.00  0.00     0.115 C 
BRANCH  66  67
ATOM     67  C   UNK d   0       4.538  -4.403  -8.246  0.00  0.00     0.139 C 
ATOM     68  O   UNK d   0       3.553  -4.531  -7.429  0.00  0.00    -0.650 OA
BRANCH  67  69
ATOM     69  O   UNK d   0       5.679  -5.108  -7.865  0.00  0.00    -0.776 OA
ATOM     70  H   UNK d   0       6.030  -4.913  -6.916  0.00  0.00     0.167 HD
ENDBRANCH  67  69
ENDBRANCH  66  67
ENDBRANCH  65  66
ENDBRANCH  14  65
ENDBRANCH   6   7
ENDBRANCH   5   6
ENDBRANCH   2   5
TORSDOF 28
ENDMDL
MODEL 19
REMARK VINA RESULT:      -7.0     11.398     15.586
REMARK  28 active torsions:
REMARK  status: ('A' for Active; 'I' for Inactive)
REMARK    1  A    between atoms: C_2  and  O_3 
REMARK    2  A    between atoms: C_2  and  C_4 
REMARK    3  A    between atoms: C_4  and  C_5 
REMARK    4  A    between atoms: C_5  and  C_6 
REMARK    5  A    between atoms: C_7  and  C_8 
REMARK    6  A    between atoms: C_8  and  C_9 
REMARK    7  A    between atoms: C_9  and  O_11 
REMARK    8  A    between atoms: C_28  and  C_29 
REMARK    9  A    between atoms: C_29  and  C_30 
REMARK   10  A    between atoms: C_30  and  O_32 
REMARK   11  A    between atoms: C_33  and  C_34 
REMARK   12  A    between atoms: C_34  and  C_35 
REMARK   13  A    between atoms: C_35  and  C_36 
REMARK   14  A    between atoms: C_36  and  O_38 
REMARK   15  A    between atoms: C_39  and  C_40 
REMARK   16  A    between atoms: C_40  and  C_41 
REMARK   17  A    between atoms: C_41  and  C_42 
REMARK   18  A    between atoms: C_42  and  O_44 
REMARK   19  A    between atoms: C_45  and  C_46 
REMARK   20  A    between atoms: C_46  and  C_47 
REMARK   21  A    between atoms: C_47  and  O_49 
REMARK   22  A    between atoms: C_50  and  C_51 
REMARK   23  A    between atoms: C_51  and  C_52 
REMARK   24  A    between atoms: C_52  and  O_54 
REMARK   25  A    between atoms: C_55  and  C_56 
REMARK   26  A    between atoms: C_56  and  C_57 
REMARK   27  A    between atoms: C_57  and  C_58 
REMARK   28  A    between atoms: C_58  and  O_60 
ROOT
ATOM      1  O   UNK d   0      29.699  15.925   1.574  0.00  0.00    -0.650 OA
ATOM      2  C   UNK d   0      29.441  16.765   0.683  0.00  0.00     0.139 C 
ENDROOT
BRANCH   2   3
ATOM      3  O   UNK d   0      29.800  16.498  -0.617  0.00  0.00    -0.776 OA
ATOM      4  H   UNK d   0      30.173  15.585  -0.884  0.00  0.00     0.167 HD
ENDBRANCH   2   3
BRANCH   2   5
ATOM      5  C   UNK d   0      28.752  18.039   1.032  0.00  0.00     0.115 C 
BRANCH   5   6
ATOM      6  C   UNK d   0      27.293  17.784   1.296  0.00  0.00     0.052 C 
BRANCH   6   7
ATOM      7  C   UNK d   0      26.489  17.645   0.025  0.00  0.00    -0.020 A 
ATOM      8  C   UNK d   0      25.947  18.600  -0.685  0.00  0.00    -0.011 A 
ATOM      9  C   UNK d   0      25.266  17.985  -1.812  0.00  0.00     0.067 A 
ATOM     10  C   UNK d   0      24.532  18.436  -2.921  0.00  0.00     0.062 C 
ATOM     11  N   UNK d   0      25.440  16.651  -1.706  0.00  0.00    -0.248 NA
ATOM     12  C   UNK d   0      24.186  17.704  -4.062  0.00  0.00     0.041 A 
ATOM     13  N   UNK d   0      23.730  16.444  -4.203  0.00  0.00    -0.355 N 
ATOM     14  C   UNK d   0      24.364  18.291  -5.328  0.00  0.00    -0.022 A 
ATOM     15  C   UNK d   0      23.623  16.215  -5.525  0.00  0.00     0.042 A 
ATOM     16  H   UNK d   0      23.472  15.738  -3.383  0.00  0.00     0.166 HD
ATOM     17  C   UNK d   0      23.195  15.067  -6.221  0.00  0.00     0.062 C 
ATOM     18  C   UNK d   0      24.011  17.350  -6.263  0.00  0.00    -0.013 A 
ATOM     19  C   UNK d   0      23.522  13.754  -6.002  0.00  0.00     0.067 A 
ATOM     20  N   UNK d   0      24.173  13.473  -4.870  0.00  0.00    -0.248 NA
ATOM     21  C   UNK d   0      23.356  12.501  -6.721  0.00  0.00    -0.011 A 
ATOM     22  C   UNK d   0      24.445  12.129  -4.797  0.00  0.00     0.066 A 
ATOM     23  C   UNK d   0      25.089  11.692  -3.649  0.00  0.00     0.062 C 
ATOM     24  C   UNK d   0      23.902  11.555  -6.012  0.00  0.00    -0.020 A 
ATOM     25  C   UNK d   0      25.416  12.441  -2.508  0.00  0.00     0.041 A 
ATOM     26  N   UNK d   0      25.883  13.688  -2.369  0.00  0.00    -0.355 N 
ATOM     27  C   UNK d   0      25.233  11.852  -1.238  0.00  0.00    -0.022 A 
ATOM     28  C   UNK d   0      26.000  13.916  -1.051  0.00  0.00     0.042 A 
ATOM     29  H   UNK d   0      26.153  14.393  -3.193  0.00  0.00     0.166 HD
ATOM     30  C   UNK d   0      26.433  15.049  -0.345  0.00  0.00     0.062 C 
ATOM     31  C   UNK d   0      25.599  12.778  -0.310  0.00  0.00    -0.013 A 
ATOM     32  C   UNK d   0      26.168  16.381  -0.621  0.00  0.00     0.066 A 
BRANCH   8  33
ATOM     33  C   UNK d   0      25.999  20.048  -0.409  0.00  0.00     0.151 C 
BRANCH  33  34
ATOM     34  C   UNK d   0      27.059  20.736  -1.168  0.00  0.00     0.143 C 
ATOM     35  O   UNK d   0      28.122  21.065  -0.622  0.00  0.00    -0.650 OA
BRANCH  34  36
ATOM     36  O   UNK d   0      26.861  21.016  -2.500  0.00  0.00    -0.776 OA
ATOM     37  H   UNK d   0      25.999  21.473  -2.828  0.00  0.00     0.167 HD
ENDBRANCH  34  36
ENDBRANCH  33  34
ENDBRANCH   8  33
BRANCH  31  38
ATOM     38  C   UNK d   0      25.559  12.602   1.190  0.00  0.00     0.151 C 
BRANCH  38  39
ATOM     39  C   UNK d   0      26.731  11.926   1.707  0.00  0.00     0.143 C 
ATOM     40  O   UNK d   0      27.885  12.239   1.365  0.00  0.00    -0.650 OA
BRANCH  39  41
ATOM     41  O   UNK d   0      26.575  10.886   2.623  0.00  0.00    -0.776 OA
ATOM     42  H   UNK d   0      27.048  10.992   3.526  0.00  0.00     0.167 HD
ENDBRANCH  39  41
ENDBRANCH  38  39
ENDBRANCH  31  38
BRANCH  27  43
ATOM     43  C   UNK d   0      24.736  10.473  -0.884  0.00  0.00     0.052 C 
BRANCH  43  44
ATOM     44  C   UNK d   0      25.807   9.431  -0.923  0.00  0.00     0.115 C 
BRANCH  44  45
ATOM     45  C   UNK d   0      25.139   8.126  -0.680  0.00  0.00     0.139 C 
ATOM     46  O   UNK d   0      25.747   7.268   0.006  0.00  0.00    -0.650 OA
BRANCH  45  47
ATOM     47  O   UNK d   0      23.886   7.826  -1.170  0.00  0.00    -0.776 OA
ATOM     48  H   UNK d   0      23.263   8.536  -1.588  0.00  0.00     0.167 HD
ENDBRANCH  45  47
ENDBRANCH  44  45
ENDBRANCH  43  44
ENDBRANCH  27  43
BRANCH  24  49
ATOM     49  C   UNK d   0      23.927  10.122  -6.350  0.00  0.00     0.052 C 
BRANCH  49  50
ATOM     50  C   UNK d   0      22.785   9.404  -5.678  0.00  0.00     0.115 C 
BRANCH  50  51
ATOM     51  C   UNK d   0      23.030   8.864  -4.347  0.00  0.00     0.139 C 
ATOM     52  O   UNK d   0      22.384   9.233  -3.338  0.00  0.00    -0.650 OA
BRANCH  51  53
ATOM     53  O   UNK d   0      24.014   7.905  -4.167  0.00  0.00    -0.776 OA
ATOM     54  H   UNK d   0      23.738   6.997  -3.837  0.00  0.00     0.167 HD
ENDBRANCH  51  53
ENDBRANCH  50  51
ENDBRANCH  49  50
ENDBRANCH  24  49
BRANCH  21  55
ATOM     55  C   UNK d   0      22.664  12.380  -8.038  0.00  0.00     0.151 C 
BRANCH  55  56
ATOM     56  C   UNK d   0      23.209  13.315  -9.035  0.00  0.00     0.143 C 
ATOM     57  O   UNK d   0      22.497  14.128  -9.657  0.00  0.00    -0.650 OA
BRANCH  56  58
ATOM     58  O   UNK d   0      24.580  13.277  -9.280  0.00  0.00    -0.776 OA
ATOM     59  H   UNK d   0      24.848  13.358 -10.278  0.00  0.00     0.167 HD
ENDBRANCH  56  58
ENDBRANCH  55  56
ENDBRANCH  21  55
BRANCH  18  60
ATOM     60  C   UNK d   0      24.058  17.556  -7.756  0.00  0.00     0.151 C 
BRANCH  60  61
ATOM     61  C   UNK d   0      22.731  18.065  -8.136  0.00  0.00     0.143 C 
ATOM     62  O   UNK d   0      21.639  17.649  -7.748  0.00  0.00    -0.650 OA
BRANCH  61  63
ATOM     63  O   UNK d   0      22.739  19.149  -9.046  0.00  0.00    -0.776 OA
ATOM     64  H   UNK d   0      23.484  19.263  -9.710  0.00  0.00     0.167 HD
ENDBRANCH  61  63
ENDBRANCH  60  61
ENDBRANCH  18  60
BRANCH  14  65
ATOM     65  C   UNK d   0      24.744  19.693  -5.714  0.00  0.00     0.052 C 
BRANCH  65  66
ATOM     66  C   UNK d   0      23.597  20.639  -5.672  0.00  0.00     0.115 C 
BRANCH  66  67
ATOM     67  C   UNK d   0      23.418  21.490  -4.530  0.00  0.00     0.139 C 
ATOM     68  O   UNK d   0      24.434  21.732  -3.779  0.00  0.00    -0.650 OA
BRANCH  67  69
ATOM     69  O   UNK d   0      22.245  22.114  -4.106  0.00  0.00    -0.776 OA
ATOM     70  H   UNK d   0      21.809  22.756  -4.784  0.00  0.00     0.167 HD
ENDBRANCH  67  69
ENDBRANCH  66  67
ENDBRANCH  65  66
ENDBRANCH  14  65
ENDBRANCH   6   7
ENDBRANCH   5   6
ENDBRANCH   2   5
TORSDOF 28
ENDMDL
MODEL 20
REMARK VINA RESULT:      -6.9     25.181     29.977
REMARK  28 active torsions:
REMARK  status: ('A' for Active; 'I' for Inactive)
REMARK    1  A    between atoms: C_2  and  O_3 
REMARK    2  A    between atoms: C_2  and  C_4 
REMARK    3  A    between atoms: C_4  and  C_5 
REMARK    4  A    between atoms: C_5  and  C_6 
REMARK    5  A    between atoms: C_7  and  C_8 
REMARK    6  A    between atoms: C_8  and  C_9 
REMARK    7  A    between atoms: C_9  and  O_11 
REMARK    8  A    between atoms: C_28  and  C_29 
REMARK    9  A    between atoms: C_29  and  C_30 
REMARK   10  A    between atoms: C_30  and  O_32 
REMARK   11  A    between atoms: C_33  and  C_34 
REMARK   12  A    between atoms: C_34  and  C_35 
REMARK   13  A    between atoms: C_35  and  C_36 
REMARK   14  A    between atoms: C_36  and  O_38 
REMARK   15  A    between atoms: C_39  and  C_40 
REMARK   16  A    between atoms: C_40  and  C_41 
REMARK   17  A    between atoms: C_41  and  C_42 
REMARK   18  A    between atoms: C_42  and  O_44 
REMARK   19  A    between atoms: C_45  and  C_46 
REMARK   20  A    between atoms: C_46  and  C_47 
REMARK   21  A    between atoms: C_47  and  O_49 
REMARK   22  A    between atoms: C_50  and  C_51 
REMARK   23  A    between atoms: C_51  and  C_52 
REMARK   24  A    between atoms: C_52  and  O_54 
REMARK   25  A    between atoms: C_55  and  C_56 
REMARK   26  A    between atoms: C_56  and  C_57 
REMARK   27  A    between atoms: C_57  and  C_58 
REMARK   28  A    between atoms: C_58  and  O_60 
ROOT
ATOM      1  O   UNK d   0     -11.307  22.410  17.036  0.00  0.00    -0.650 OA
ATOM      2  C   UNK d   0     -10.296  22.715  17.707  0.00  0.00     0.139 C 
ENDROOT
BRANCH   2   3
ATOM      3  O   UNK d   0      -9.900  21.898  18.738  0.00  0.00    -0.776 OA
ATOM      4  H   UNK d   0      -9.631  22.285  19.645  0.00  0.00     0.167 HD
ENDBRANCH   2   3
BRANCH   2   5
ATOM      5  C   UNK d   0      -9.532  23.954  17.387  0.00  0.00     0.115 C 
BRANCH   5   6
ATOM      6  C   UNK d   0      -8.117  23.607  17.010  0.00  0.00     0.052 C 
BRANCH   6   7
ATOM      7  C   UNK d   0      -8.010  23.040  15.615  0.00  0.00    -0.020 A 
ATOM      8  C   UNK d   0      -7.693  21.817  15.273  0.00  0.00    -0.011 A 
ATOM      9  C   UNK d   0      -7.710  21.744  13.821  0.00  0.00     0.067 A 
ATOM     10  C   UNK d   0      -7.491  20.749  12.855  0.00  0.00     0.062 C 
ATOM     11  N   UNK d   0      -8.041  22.968  13.361  0.00  0.00    -0.248 NA
ATOM     12  C   UNK d   0      -7.827  20.797  11.498  0.00  0.00     0.041 A 
ATOM     13  N   UNK d   0      -7.706  21.784  10.589  0.00  0.00    -0.355 N 
ATOM     14  C   UNK d   0      -8.455  19.683  10.912  0.00  0.00    -0.022 A 
ATOM     15  C   UNK d   0      -8.248  21.327   9.444  0.00  0.00     0.042 A 
ATOM     16  H   UNK d   0      -7.230  22.776  10.749  0.00  0.00     0.166 HD
ATOM     17  C   UNK d   0      -8.382  21.947   8.186  0.00  0.00     0.062 C 
ATOM     18  C   UNK d   0      -8.728  20.013   9.608  0.00  0.00    -0.013 A 
ATOM     19  C   UNK d   0      -8.794  23.223   7.893  0.00  0.00     0.067 A 
ATOM     20  N   UNK d   0      -8.900  24.074   8.917  0.00  0.00    -0.248 NA
ATOM     21  C   UNK d   0      -9.185  23.944   6.694  0.00  0.00    -0.011 A 
ATOM     22  C   UNK d   0      -9.334  25.299   8.474  0.00  0.00     0.066 A 
ATOM     23  C   UNK d   0      -9.454  26.294   9.433  0.00  0.00     0.062 C 
ATOM     24  C   UNK d   0      -9.504  25.158   7.041  0.00  0.00    -0.020 A 
ATOM     25  C   UNK d   0      -9.098  26.229  10.789  0.00  0.00     0.041 A 
ATOM     26  N   UNK d   0      -9.233  25.254  11.696  0.00  0.00    -0.355 N 
ATOM     27  C   UNK d   0      -8.465  27.346  11.376  0.00  0.00    -0.022 A 
ATOM     28  C   UNK d   0      -8.701  25.710  12.842  0.00  0.00     0.042 A 
ATOM     29  H   UNK d   0      -9.721  24.261  11.537  0.00  0.00     0.166 HD
ATOM     30  C   UNK d   0      -8.569  25.108  14.102  0.00  0.00     0.062 C 
ATOM     31  C   UNK d   0      -8.209  27.027  12.674  0.00  0.00    -0.013 A 
ATOM     32  C   UNK d   0      -8.235  23.794  14.391  0.00  0.00     0.066 A 
BRANCH   8  33
ATOM     33  C   UNK d   0      -7.368  20.700  16.179  0.00  0.00     0.151 C 
BRANCH  33  34
ATOM     34  C   UNK d   0      -8.372  19.622  16.138  0.00  0.00     0.143 C 
ATOM     35  O   UNK d   0      -8.044  18.457  15.869  0.00  0.00    -0.650 OA
BRANCH  34  36
ATOM     36  O   UNK d   0      -9.690  19.915  16.399  0.00  0.00    -0.776 OA
ATOM     37  H   UNK d   0     -10.049  20.877  16.322  0.00  0.00     0.167 HD
ENDBRANCH  34  36
ENDBRANCH  33  34
ENDBRANCH   8  33
BRANCH  31  38
ATOM     38  C   UNK d   0      -7.527  27.910  13.692  0.00  0.00     0.151 C 
BRANCH  38  39
ATOM     39  C   UNK d   0      -8.447  28.801  14.368  0.00  0.00     0.143 C 
ATOM     40  O   UNK d   0      -8.061  29.796  15.006  0.00  0.00    -0.650 OA
BRANCH  39  41
ATOM     41  O   UNK d   0      -9.817  28.547  14.309  0.00  0.00    -0.776 OA
ATOM     42  H   UNK d   0     -10.320  28.521  15.201  0.00  0.00     0.167 HD
ENDBRANCH  39  41
ENDBRANCH  38  39
ENDBRANCH  31  38
BRANCH  27  43
ATOM     43  C   UNK d   0      -8.104  28.676  10.761  0.00  0.00     0.052 C 
BRANCH  43  44
ATOM     44  C   UNK d   0      -6.715  28.716  10.212  0.00  0.00     0.115 C 
BRANCH  44  45
ATOM     45  C   UNK d   0      -6.843  28.942   8.749  0.00  0.00     0.139 C 
ATOM     46  O   UNK d   0      -7.997  28.970   8.253  0.00  0.00    -0.650 OA
BRANCH  45  47
ATOM     47  O   UNK d   0      -5.755  29.127   7.923  0.00  0.00    -0.776 OA
ATOM     48  H   UNK d   0      -5.440  28.416   7.244  0.00  0.00     0.167 HD
ENDBRANCH  45  47
ENDBRANCH  44  45
ENDBRANCH  43  44
ENDBRANCH  27  43
BRANCH  24  49
ATOM     49  C   UNK d   0      -9.923  26.239   6.133  0.00  0.00     0.052 C 
BRANCH  49  50
ATOM     50  C   UNK d   0     -11.325  26.684   6.459  0.00  0.00     0.115 C 
BRANCH  50  51
ATOM     51  C   UNK d   0     -11.568  28.119   6.533  0.00  0.00     0.139 C 
ATOM     52  O   UNK d   0     -12.701  28.624   6.351  0.00  0.00    -0.650 OA
BRANCH  51  53
ATOM     53  O   UNK d   0     -10.517  28.978   6.814  0.00  0.00    -0.776 OA
ATOM     54  H   UNK d   0     -10.400  29.791   6.234  0.00  0.00     0.167 HD
ENDBRANCH  51  53
ENDBRANCH  50  51
ENDBRANCH  49  50
ENDBRANCH  24  49
BRANCH  21  55
ATOM     55  C   UNK d   0      -9.195  23.347   5.326  0.00  0.00     0.151 C 
BRANCH  55  56
ATOM     56  C   UNK d   0      -7.931  23.584   4.612  0.00  0.00     0.143 C 
ATOM     57  O   UNK d   0      -6.942  22.833   4.722  0.00  0.00    -0.650 OA
BRANCH  56  58
ATOM     58  O   UNK d   0      -7.854  24.701   3.781  0.00  0.00    -0.776 OA
ATOM     59  H   UNK d   0      -6.892  25.022   3.570  0.00  0.00     0.167 HD
ENDBRANCH  56  58
ENDBRANCH  55  56
ENDBRANCH  21  55
BRANCH  18  60
ATOM     60  C   UNK d   0      -9.408  19.108   8.611  0.00  0.00     0.151 C 
BRANCH  60  61
ATOM     61  C   UNK d   0     -10.701  19.741   8.308  0.00  0.00     0.143 C 
ATOM     62  O   UNK d   0     -11.533  20.155   9.116  0.00  0.00    -0.650 OA
BRANCH  61  63
ATOM     63  O   UNK d   0     -10.997  19.877   6.930  0.00  0.00    -0.776 OA
ATOM     64  H   UNK d   0     -10.415  20.431   6.327  0.00  0.00     0.167 HD
ENDBRANCH  61  63
ENDBRANCH  60  61
ENDBRANCH  18  60
BRANCH  14  65
ATOM     65  C   UNK d   0      -8.724  18.309  11.458  0.00  0.00     0.052 C 
BRANCH  65  66
ATOM     66  C   UNK d   0     -10.154  18.091  11.805  0.00  0.00     0.115 C 
BRANCH  66  67
ATOM     67  C   UNK d   0     -10.895  19.134  12.456  0.00  0.00     0.139 C 
ATOM     68  O   UNK d   0     -10.682  19.350  13.706  0.00  0.00    -0.650 OA
BRANCH  67  69
ATOM     69  O   UNK d   0     -11.853  19.978  11.895  0.00  0.00    -0.776 OA
ATOM     70  H   UNK d   0     -11.487  20.775  11.355  0.00  0.00     0.167 HD
ENDBRANCH  67  69
ENDBRANCH  66  67
ENDBRANCH  65  66
ENDBRANCH  14  65
ENDBRANCH   6   7
ENDBRANCH   5   6
ENDBRANCH   2   5
TORSDOF 28
ENDMDL
