MODEL 1
REMARK VINA RESULT:     -10.2      0.000      0.000
REMARK  16 active torsions:
REMARK  status: ('A' for Active; 'I' for Inactive)
REMARK    1  A    between atoms: C_6  and  C_7 
REMARK    2  A    between atoms: C_7  and  C_8 
REMARK    3  A    between atoms: C_8  and  C_9 
REMARK    4  A    between atoms: C_9  and  O_11 
REMARK    5  A    between atoms: C_16  and  C_17 
REMARK    6  A    between atoms: C_17  and  C_18 
REMARK    7  A    between atoms: C_18  and  C_19 
REMARK    8  A    between atoms: C_19  and  O_21 
REMARK    9  A    between atoms: C_28  and  C_29 
REMARK   10  A    between atoms: C_29  and  C_30 
REMARK   11  A    between atoms: C_30  and  C_31 
REMARK   12  A    between atoms: C_31  and  O_33 
REMARK   13  A    between atoms: C_42  and  C_43 
REMARK   14  A    between atoms: C_43  and  C_44 
REMARK   15  A    between atoms: C_44  and  C_45 
REMARK   16  A    between atoms: C_45  and  O_47 
ROOT
HETATM    1  C   UNK     0      39.088   8.723  63.771  0.00  0.00     0.051 C 
HETATM    2  C   UNK     0      39.271  10.222  63.900  0.00  0.00    -0.031 A 
HETATM    3  C   UNK     0      38.729  11.243  63.135  0.00  0.00     0.021 A 
HETATM    4  N   UNK     0      39.193  12.430  63.592  0.00  0.00    -0.361 N 
HETATM    5  C   UNK     0      40.011  12.189  64.637  0.00  0.00     0.022 A 
HETATM    6  C   UNK     0      40.085  10.817  64.854  0.00  0.00    -0.027 A 
HETATM    7  C   UNK     0      40.702  13.155  65.548  0.00  0.00     0.115 C 
HETATM    8  C   UNK     0      39.892  14.351  66.015  0.00  0.00     0.021 A 
HETATM    9  N   UNK     0      38.583  14.411  66.305  0.00  0.00    -0.361 N 
HETATM   10  C   UNK     0      38.276  15.695  66.588  0.00  0.00     0.022 A 
HETATM   11  C   UNK     0      39.420  16.481  66.486  0.00  0.00    -0.027 A 
HETATM   12  C   UNK     0      40.441  15.640  66.125  0.00  0.00    -0.031 A 
HETATM   13  C   UNK     0      41.878  16.056  65.902  0.00  0.00     0.051 C 
HETATM   14  C   UNK     0      36.887  16.239  66.913  0.00  0.00     0.115 C 
HETATM   15  C   UNK     0      35.874  16.047  65.796  0.00  0.00     0.021 A 
HETATM   16  N   UNK     0      35.482  14.889  65.232  0.00  0.00    -0.361 N 
HETATM   17  C   UNK     0      34.631  15.151  64.238  0.00  0.00     0.022 A 
HETATM   18  C   UNK     0      34.452  16.547  64.156  0.00  0.00    -0.027 A 
HETATM   19  C   UNK     0      35.235  17.096  65.138  0.00  0.00    -0.031 A 
HETATM   20  C   UNK     0      35.310  18.585  65.423  0.00  0.00     0.051 C 
HETATM   21  C   UNK     0      33.965  14.214  63.256  0.00  0.00     0.115 C 
HETATM   22  C   UNK     0      34.744  12.996  62.817  0.00  0.00     0.022 A 
HETATM   23  N   UNK     0      36.048  12.906  62.524  0.00  0.00    -0.361 N 
HETATM   24  C   UNK     0      36.347  11.607  62.322  0.00  0.00     0.021 A 
HETATM   25  C   UNK     0      35.206  10.843  62.478  0.00  0.00    -0.031 A 
HETATM   26  C   UNK     0      35.029   9.348  62.313  0.00  0.00     0.051 C 
HETATM   27  C   UNK     0      34.167  11.710  62.794  0.00  0.00    -0.027 A 
HETATM   28  C   UNK     0      37.713  10.998  62.055  0.00  0.00     0.115 C 
HETATM   29  H   UNK     0      38.970  13.428  63.148  0.00  0.00     0.165 HD
HETATM   30  H   UNK     0      37.883  13.542  66.361  0.00  0.00     0.165 HD
HETATM   31  H   UNK     0      35.775  13.862  65.573  0.00  0.00     0.165 HD
HETATM   32  H   UNK     0      36.761  13.764  62.415  0.00  0.00     0.165 HD
ENDROOT
BRANCH   6  33
HETATM   33  C   UNK     0      40.862  10.039  65.886  0.00  0.00     0.051 C 
BRANCH  33  34
HETATM   34  C   UNK     0      40.006   9.753  67.097  0.00  0.00     0.114 C 
BRANCH  34  35
HETATM   35  C   UNK     0      40.775  10.187  68.299  0.00  0.00     0.139 C 
HETATM   36  O   UNK     0      41.957  10.623  68.177  0.00  0.00    -0.650 OA
BRANCH  35  37
HETATM   37  O   UNK     0      40.248  10.138  69.584  0.00  0.00    -0.776 OA
HETATM   38  H   UNK     0      40.818   9.936  70.389  0.00  0.00     0.167 HD
ENDBRANCH  35  37
ENDBRANCH  34  35
ENDBRANCH  33  34
ENDBRANCH   6  33
BRANCH  27  39
HETATM   39  C   UNK     0      32.759  11.259  62.968  0.00  0.00     0.051 C 
BRANCH  39  40
HETATM   40  C   UNK     0      32.356  10.728  64.270  0.00  0.00     0.114 C 
BRANCH  40  41
HETATM   41  C   UNK     0      32.738  11.361  65.512  0.00  0.00     0.139 C 
HETATM   42  O   UNK     0      32.335  12.479  65.862  0.00  0.00    -0.650 OA
BRANCH  41  43
HETATM   43  O   UNK     0      33.625  10.677  66.392  0.00  0.00    -0.776 OA
HETATM   44  H   UNK     0      33.170  10.032  67.027  0.00  0.00     0.167 HD
ENDBRANCH  41  43
ENDBRANCH  40  41
ENDBRANCH  39  40
ENDBRANCH  27  39
BRANCH  11  45
HETATM   45  C   UNK     0      39.569  17.961  66.716  0.00  0.00     0.051 C 
BRANCH  45  46
HETATM   46  C   UNK     0      39.128  18.800  65.572  0.00  0.00     0.114 C 
BRANCH  46  47
HETATM   47  C   UNK     0      40.282  19.662  65.187  0.00  0.00     0.139 C 
HETATM   48  O   UNK     0      41.327  19.583  65.846  0.00  0.00    -0.650 OA
BRANCH  47  49
HETATM   49  O   UNK     0      40.189  20.527  64.126  0.00  0.00    -0.776 OA
HETATM   50  H   UNK     0      39.790  21.468  64.223  0.00  0.00     0.167 HD
ENDBRANCH  47  49
ENDBRANCH  46  47
ENDBRANCH  45  46
ENDBRANCH  11  45
BRANCH  18  51
HETATM   51  C   UNK     0      33.567  17.313  63.208  0.00  0.00     0.051 C 
BRANCH  51  52
HETATM   52  C   UNK     0      32.208  17.418  63.884  0.00  0.00     0.114 C 
BRANCH  52  53
HETATM   53  C   UNK     0      31.163  16.694  63.135  0.00  0.00     0.139 C 
HETATM   54  O   UNK     0      31.347  16.395  61.945  0.00  0.00    -0.650 OA
BRANCH  53  55
HETATM   55  O   UNK     0      29.988  16.358  63.762  0.00  0.00    -0.776 OA
HETATM   56  H   UNK     0      29.571  15.457  63.776  0.00  0.00     0.167 HD
ENDBRANCH  53  55
ENDBRANCH  52  53
ENDBRANCH  51  52
ENDBRANCH  18  51
TORSDOF 16
ENDMDL
MODEL 2
REMARK VINA RESULT:     -10.1      3.946     10.003
REMARK  16 active torsions:
REMARK  status: ('A' for Active; 'I' for Inactive)
REMARK    1  A    between atoms: C_6  and  C_7 
REMARK    2  A    between atoms: C_7  and  C_8 
REMARK    3  A    between atoms: C_8  and  C_9 
REMARK    4  A    between atoms: C_9  and  O_11 
REMARK    5  A    between atoms: C_16  and  C_17 
REMARK    6  A    between atoms: C_17  and  C_18 
REMARK    7  A    between atoms: C_18  and  C_19 
REMARK    8  A    between atoms: C_19  and  O_21 
REMARK    9  A    between atoms: C_28  and  C_29 
REMARK   10  A    between atoms: C_29  and  C_30 
REMARK   11  A    between atoms: C_30  and  C_31 
REMARK   12  A    between atoms: C_31  and  O_33 
REMARK   13  A    between atoms: C_42  and  C_43 
REMARK   14  A    between atoms: C_43  and  C_44 
REMARK   15  A    between atoms: C_44  and  C_45 
REMARK   16  A    between atoms: C_45  and  O_47 
ROOT
HETATM    1  C   UNK     0      35.883  16.134  64.929  0.00  0.00     0.051 C 
HETATM    2  C   UNK     0      35.364  15.712  63.569  0.00  0.00    -0.031 A 
HETATM    3  C   UNK     0      35.998  14.988  62.572  0.00  0.00     0.021 A 
HETATM    4  N   UNK     0      35.164  14.873  61.512  0.00  0.00    -0.361 N 
HETATM    5  C   UNK     0      34.009  15.501  61.815  0.00  0.00     0.022 A 
HETATM    6  C   UNK     0      34.101  16.040  63.094  0.00  0.00    -0.027 A 
HETATM    7  C   UNK     0      32.737  15.586  61.030  0.00  0.00     0.115 C 
HETATM    8  C   UNK     0      32.268  14.311  60.351  0.00  0.00     0.021 A 
HETATM    9  N   UNK     0      32.371  13.046  60.786  0.00  0.00    -0.361 N 
HETATM   10  C   UNK     0      31.904  12.230  59.818  0.00  0.00     0.022 A 
HETATM   11  C   UNK     0      31.480  12.992  58.733  0.00  0.00    -0.027 A 
HETATM   12  C   UNK     0      31.706  14.304  59.062  0.00  0.00    -0.031 A 
HETATM   13  C   UNK     0      31.392  15.493  58.182  0.00  0.00     0.051 C 
HETATM   14  C   UNK     0      31.888  10.705  59.854  0.00  0.00     0.115 C 
HETATM   15  C   UNK     0      33.267  10.077  59.976  0.00  0.00     0.021 A 
HETATM   16  N   UNK     0      34.173  10.267  60.954  0.00  0.00    -0.361 N 
HETATM   17  C   UNK     0      35.285   9.592  60.659  0.00  0.00     0.022 A 
HETATM   18  C   UNK     0      35.093   8.922  59.434  0.00  0.00    -0.027 A 
HETATM   19  C   UNK     0      33.824   9.233  59.018  0.00  0.00    -0.031 A 
HETATM   20  C   UNK     0      33.195   8.686  57.749  0.00  0.00     0.051 C 
HETATM   21  C   UNK     0      36.609   9.533  61.388  0.00  0.00     0.115 C 
HETATM   22  C   UNK     0      37.067  10.781  62.105  0.00  0.00     0.022 A 
HETATM   23  N   UNK     0      36.973  12.053  61.697  0.00  0.00    -0.361 N 
HETATM   24  C   UNK     0      37.372  12.852  62.708  0.00  0.00     0.021 A 
HETATM   25  C   UNK     0      37.740  12.074  63.789  0.00  0.00    -0.031 A 
HETATM   26  C   UNK     0      38.290  12.508  65.132  0.00  0.00     0.051 C 
HETATM   27  C   UNK     0      37.554  10.745  63.427  0.00  0.00    -0.027 A 
HETATM   28  C   UNK     0      37.356  14.370  62.755  0.00  0.00     0.115 C 
HETATM   29  H   UNK     0      35.411  14.383  60.542  0.00  0.00     0.165 HD
HETATM   30  H   UNK     0      32.727  12.728  61.797  0.00  0.00     0.165 HD
HETATM   31  H   UNK     0      34.007  10.852  61.896  0.00  0.00     0.165 HD
HETATM   32  H   UNK     0      36.666  12.399  60.676  0.00  0.00     0.165 HD
ENDROOT
BRANCH   6  33
HETATM   33  C   UNK     0      33.095  16.835  63.887  0.00  0.00     0.051 C 
BRANCH  33  34
HETATM   34  C   UNK     0      32.215  15.919  64.705  0.00  0.00     0.114 C 
BRANCH  34  35
HETATM   35  C   UNK     0      30.799  16.281  64.411  0.00  0.00     0.139 C 
HETATM   36  O   UNK     0      29.864  15.841  65.143  0.00  0.00    -0.650 OA
BRANCH  35  37
HETATM   37  O   UNK     0      30.440  17.100  63.348  0.00  0.00    -0.776 OA
HETATM   38  H   UNK     0      30.019  16.734  62.509  0.00  0.00     0.167 HD
ENDBRANCH  35  37
ENDBRANCH  34  35
ENDBRANCH  33  34
ENDBRANCH   6  33
BRANCH  27  39
HETATM   39  C   UNK     0      37.913   9.605  64.314  0.00  0.00     0.051 C 
BRANCH  39  40
HETATM   40  C   UNK     0      39.237   9.002  64.166  0.00  0.00     0.114 C 
BRANCH  40  41
HETATM   41  C   UNK     0      40.346   9.358  65.022  0.00  0.00     0.139 C 
HETATM   42  O   UNK     0      40.506   8.900  66.161  0.00  0.00    -0.650 OA
BRANCH  41  43
HETATM   43  O   UNK     0      41.316  10.286  64.546  0.00  0.00    -0.776 OA
HETATM   44  H   UNK     0      41.009  11.251  64.547  0.00  0.00     0.167 HD
ENDBRANCH  41  43
ENDBRANCH  40  41
ENDBRANCH  39  40
ENDBRANCH  27  39
BRANCH  11  45
HETATM   45  C   UNK     0      30.881  12.527  57.432  0.00  0.00     0.051 C 
BRANCH  45  46
HETATM   46  C   UNK     0      29.497  12.002  57.556  0.00  0.00     0.114 C 
BRANCH  46  47
HETATM   47  C   UNK     0      29.550  10.542  57.256  0.00  0.00     0.139 C 
HETATM   48  O   UNK     0      28.996   9.756  58.037  0.00  0.00    -0.650 OA
BRANCH  47  49
HETATM   49  O   UNK     0      30.200  10.077  56.140  0.00  0.00    -0.776 OA
HETATM   50  H   UNK     0      29.832   9.300  55.579  0.00  0.00     0.167 HD
ENDBRANCH  47  49
ENDBRANCH  46  47
ENDBRANCH  45  46
ENDBRANCH  11  45
BRANCH  18  51
HETATM   51  C   UNK     0      36.057   8.017  58.711  0.00  0.00     0.051 C 
BRANCH  51  52
HETATM   52  C   UNK     0      35.560   6.597  58.938  0.00  0.00     0.114 C 
BRANCH  52  53
HETATM   53  C   UNK     0      36.449   5.842  59.842  0.00  0.00     0.139 C 
HETATM   54  O   UNK     0      36.518   6.146  61.043  0.00  0.00    -0.650 OA
BRANCH  53  55
HETATM   55  O   UNK     0      37.201   4.805  59.345  0.00  0.00    -0.776 OA
HETATM   56  H   UNK     0      38.178   4.680  59.470  0.00  0.00     0.167 HD
ENDBRANCH  53  55
ENDBRANCH  52  53
ENDBRANCH  51  52
ENDBRANCH  18  51
TORSDOF 16
ENDMDL
MODEL 3
REMARK VINA RESULT:     -10.1      1.888      2.284
REMARK  16 active torsions:
REMARK  status: ('A' for Active; 'I' for Inactive)
REMARK    1  A    between atoms: C_6  and  C_7 
REMARK    2  A    between atoms: C_7  and  C_8 
REMARK    3  A    between atoms: C_8  and  C_9 
REMARK    4  A    between atoms: C_9  and  O_11 
REMARK    5  A    between atoms: C_16  and  C_17 
REMARK    6  A    between atoms: C_17  and  C_18 
REMARK    7  A    between atoms: C_18  and  C_19 
REMARK    8  A    between atoms: C_19  and  O_21 
REMARK    9  A    between atoms: C_28  and  C_29 
REMARK   10  A    between atoms: C_29  and  C_30 
REMARK   11  A    between atoms: C_30  and  C_31 
REMARK   12  A    between atoms: C_31  and  O_33 
REMARK   13  A    between atoms: C_42  and  C_43 
REMARK   14  A    between atoms: C_43  and  C_44 
REMARK   15  A    between atoms: C_44  and  C_45 
REMARK   16  A    between atoms: C_45  and  O_47 
ROOT
HETATM    1  C   UNK     0      38.227   8.691  63.601  0.00  0.00     0.051 C 
HETATM    2  C   UNK     0      38.558  10.153  63.821  0.00  0.00    -0.031 A 
HETATM    3  C   UNK     0      38.340  11.240  62.989  0.00  0.00     0.021 A 
HETATM    4  N   UNK     0      38.827  12.355  63.582  0.00  0.00    -0.361 N 
HETATM    5  C   UNK     0      39.342  12.005  64.779  0.00  0.00     0.022 A 
HETATM    6  C   UNK     0      39.193  10.634  64.959  0.00  0.00    -0.027 A 
HETATM    7  C   UNK     0      39.915  12.869  65.859  0.00  0.00     0.115 C 
HETATM    8  C   UNK     0      39.171  14.157  66.167  0.00  0.00     0.021 A 
HETATM    9  N   UNK     0      37.848  14.383  66.149  0.00  0.00    -0.361 N 
HETATM   10  C   UNK     0      37.644  15.694  66.399  0.00  0.00     0.022 A 
HETATM   11  C   UNK     0      38.868  16.327  66.592  0.00  0.00    -0.027 A 
HETATM   12  C   UNK     0      39.834  15.365  66.447  0.00  0.00    -0.031 A 
HETATM   13  C   UNK     0      41.323  15.594  66.578  0.00  0.00     0.051 C 
HETATM   14  C   UNK     0      36.296  16.409  66.412  0.00  0.00     0.115 C 
HETATM   15  C   UNK     0      35.557  16.355  65.085  0.00  0.00     0.021 A 
HETATM   16  N   UNK     0      35.168  15.260  64.406  0.00  0.00    -0.361 N 
HETATM   17  C   UNK     0      34.612  15.634  63.251  0.00  0.00     0.022 A 
HETATM   18  C   UNK     0      34.630  17.041  63.180  0.00  0.00    -0.027 A 
HETATM   19  C   UNK     0      35.223  17.481  64.335  0.00  0.00    -0.031 A 
HETATM   20  C   UNK     0      35.412  18.946  64.682  0.00  0.00     0.051 C 
HETATM   21  C   UNK     0      34.084  14.795  62.110  0.00  0.00     0.115 C 
HETATM   22  C   UNK     0      34.787  13.490  61.820  0.00  0.00     0.022 A 
HETATM   23  N   UNK     0      36.102  13.235  61.834  0.00  0.00    -0.361 N 
HETATM   24  C   UNK     0      36.278  11.910  61.660  0.00  0.00     0.021 A 
HETATM   25  C   UNK     0      35.047  11.298  61.521  0.00  0.00    -0.031 A 
HETATM   26  C   UNK     0      34.731   9.839  61.267  0.00  0.00     0.051 C 
HETATM   27  C   UNK     0      34.077  12.289  61.619  0.00  0.00    -0.027 A 
HETATM   28  C   UNK     0      37.583  11.133  61.695  0.00  0.00     0.115 C 
HETATM   29  H   UNK     0      38.839  13.376  63.135  0.00  0.00     0.165 HD
HETATM   30  H   UNK     0      37.053  13.610  66.011  0.00  0.00     0.165 HD
HETATM   31  H   UNK     0      35.244  14.202  64.769  0.00  0.00     0.165 HD
HETATM   32  H   UNK     0      36.921  13.996  61.923  0.00  0.00     0.165 HD
ENDROOT
BRANCH   6  33
HETATM   33  C   UNK     0      39.606   9.757  66.114  0.00  0.00     0.051 C 
BRANCH  33  34
HETATM   34  C   UNK     0      41.099   9.532  66.109  0.00  0.00     0.114 C 
BRANCH  34  35
HETATM   35  C   UNK     0      41.661  10.236  67.298  0.00  0.00     0.139 C 
HETATM   36  O   UNK     0      41.011  10.272  68.383  0.00  0.00    -0.650 OA
BRANCH  35  37
HETATM   37  O   UNK     0      42.897  10.871  67.278  0.00  0.00    -0.776 OA
HETATM   38  H   UNK     0      43.361  11.163  68.122  0.00  0.00     0.167 HD
ENDBRANCH  35  37
ENDBRANCH  34  35
ENDBRANCH  33  34
ENDBRANCH   6  33
BRANCH  27  39
HETATM   39  C   UNK     0      32.624  12.021  61.446  0.00  0.00     0.051 C 
BRANCH  39  40
HETATM   40  C   UNK     0      32.094  11.918  60.087  0.00  0.00     0.114 C 
BRANCH  40  41
HETATM   41  C   UNK     0      31.570  13.061  59.375  0.00  0.00     0.139 C 
HETATM   42  O   UNK     0      31.130  13.004  58.218  0.00  0.00    -0.650 OA
BRANCH  41  43
HETATM   43  O   UNK     0      31.551  14.329  60.022  0.00  0.00    -0.776 OA
HETATM   44  H   UNK     0      31.852  15.101  59.440  0.00  0.00     0.167 HD
ENDBRANCH  41  43
ENDBRANCH  40  41
ENDBRANCH  39  40
ENDBRANCH  27  39
BRANCH  11  45
HETATM   45  C   UNK     0      39.141  17.775  66.902  0.00  0.00     0.051 C 
BRANCH  45  46
HETATM   46  C   UNK     0      38.940  18.690  65.750  0.00  0.00     0.114 C 
BRANCH  46  47
HETATM   47  C   UNK     0      40.183  19.502  65.609  0.00  0.00     0.139 C 
HETATM   48  O   UNK     0      40.084  20.673  65.218  0.00  0.00    -0.650 OA
BRANCH  47  49
HETATM   49  O   UNK     0      41.410  18.964  65.904  0.00  0.00    -0.776 OA
HETATM   50  H   UNK     0      41.901  19.175  66.781  0.00  0.00     0.167 HD
ENDBRANCH  47  49
ENDBRANCH  46  47
ENDBRANCH  45  46
ENDBRANCH  11  45
BRANCH  18  51
HETATM   51  C   UNK     0      34.092  17.920  62.080  0.00  0.00     0.051 C 
BRANCH  51  52
HETATM   52  C   UNK     0      32.694  18.336  62.512  0.00  0.00     0.114 C 
BRANCH  52  53
HETATM   53  C   UNK     0      31.652  17.721  61.669  0.00  0.00     0.139 C 
HETATM   54  O   UNK     0      31.951  17.236  60.566  0.00  0.00    -0.650 OA
BRANCH  53  55
HETATM   55  O   UNK     0      30.351  17.692  62.109  0.00  0.00    -0.776 OA
HETATM   56  H   UNK     0      29.552  17.972  61.590  0.00  0.00     0.167 HD
ENDBRANCH  53  55
ENDBRANCH  52  53
ENDBRANCH  51  52
ENDBRANCH  18  51
TORSDOF 16
ENDMDL
MODEL 4
REMARK VINA RESULT:      -9.8      2.972      7.850
REMARK  16 active torsions:
REMARK  status: ('A' for Active; 'I' for Inactive)
REMARK    1  A    between atoms: C_6  and  C_7 
REMARK    2  A    between atoms: C_7  and  C_8 
REMARK    3  A    between atoms: C_8  and  C_9 
REMARK    4  A    between atoms: C_9  and  O_11 
REMARK    5  A    between atoms: C_16  and  C_17 
REMARK    6  A    between atoms: C_17  and  C_18 
REMARK    7  A    between atoms: C_18  and  C_19 
REMARK    8  A    between atoms: C_19  and  O_21 
REMARK    9  A    between atoms: C_28  and  C_29 
REMARK   10  A    between atoms: C_29  and  C_30 
REMARK   11  A    between atoms: C_30  and  C_31 
REMARK   12  A    between atoms: C_31  and  O_33 
REMARK   13  A    between atoms: C_42  and  C_43 
REMARK   14  A    between atoms: C_43  and  C_44 
REMARK   15  A    between atoms: C_44  and  C_45 
REMARK   16  A    between atoms: C_45  and  O_47 
ROOT
HETATM    1  C   UNK     0      31.962  13.896  59.875  0.00  0.00     0.051 C 
HETATM    2  C   UNK     0      32.833  13.991  61.111  0.00  0.00    -0.031 A 
HETATM    3  C   UNK     0      33.229  12.993  61.987  0.00  0.00     0.021 A 
HETATM    4  N   UNK     0      33.981  13.541  62.970  0.00  0.00    -0.361 N 
HETATM    5  C   UNK     0      34.079  14.866  62.736  0.00  0.00     0.022 A 
HETATM    6  C   UNK     0      33.370  15.182  61.582  0.00  0.00    -0.027 A 
HETATM    7  C   UNK     0      34.870  15.906  63.467  0.00  0.00     0.115 C 
HETATM    8  C   UNK     0      36.280  15.524  63.881  0.00  0.00     0.021 A 
HETATM    9  N   UNK     0      37.163  14.752  63.228  0.00  0.00    -0.361 N 
HETATM   10  C   UNK     0      38.254  14.609  64.011  0.00  0.00     0.022 A 
HETATM   11  C   UNK     0      38.072  15.315  65.196  0.00  0.00    -0.027 A 
HETATM   12  C   UNK     0      36.831  15.894  65.121  0.00  0.00    -0.031 A 
HETATM   13  C   UNK     0      36.207  16.765  66.188  0.00  0.00     0.051 C 
HETATM   14  C   UNK     0      39.483  13.760  63.697  0.00  0.00     0.115 C 
HETATM   15  C   UNK     0      39.182  12.280  63.524  0.00  0.00     0.021 A 
HETATM   16  N   UNK     0      38.345  11.711  62.638  0.00  0.00    -0.361 N 
HETATM   17  C   UNK     0      38.307  10.394  62.854  0.00  0.00     0.022 A 
HETATM   18  C   UNK     0      39.168  10.090  63.927  0.00  0.00    -0.027 A 
HETATM   19  C   UNK     0      39.712  11.280  64.336  0.00  0.00    -0.031 A 
HETATM   20  C   UNK     0      40.730  11.402  65.455  0.00  0.00     0.051 C 
HETATM   21  C   UNK     0      37.475   9.323  62.186  0.00  0.00     0.115 C 
HETATM   22  C   UNK     0      36.086   9.702  61.729  0.00  0.00     0.022 A 
HETATM   23  N   UNK     0      35.187  10.471  62.356  0.00  0.00    -0.361 N 
HETATM   24  C   UNK     0      34.142  10.665  61.526  0.00  0.00     0.021 A 
HETATM   25  C   UNK     0      34.369   9.995  60.339  0.00  0.00    -0.031 A 
HETATM   26  C   UNK     0      33.474   9.880  59.123  0.00  0.00     0.051 C 
HETATM   27  C   UNK     0      35.607   9.371  60.445  0.00  0.00    -0.027 A 
HETATM   28  C   UNK     0      32.922  11.540  61.755  0.00  0.00     0.115 C 
HETATM   29  H   UNK     0      34.404  12.995  63.845  0.00  0.00     0.165 HD
HETATM   30  H   UNK     0      37.041  14.348  62.193  0.00  0.00     0.165 HD
HETATM   31  H   UNK     0      37.805  12.242  61.811  0.00  0.00     0.165 HD
HETATM   32  H   UNK     0      35.262  10.850  63.408  0.00  0.00     0.165 HD
ENDROOT
BRANCH   6  33
HETATM   33  C   UNK     0      33.165  16.513  60.903  0.00  0.00     0.051 C 
BRANCH  33  34
HETATM   34  C   UNK     0      32.056  17.289  61.571  0.00  0.00     0.114 C 
BRANCH  34  35
HETATM   35  C   UNK     0      30.831  17.127  60.736  0.00  0.00     0.139 C 
HETATM   36  O   UNK     0      30.866  17.384  59.497  0.00  0.00    -0.650 OA
BRANCH  35  37
HETATM   37  O   UNK     0      29.619  16.693  61.259  0.00  0.00    -0.776 OA
HETATM   38  H   UNK     0      29.254  15.774  61.070  0.00  0.00     0.167 HD
ENDBRANCH  35  37
ENDBRANCH  34  35
ENDBRANCH  33  34
ENDBRANCH   6  33
BRANCH  27  39
HETATM   39  C   UNK     0      36.165   8.491  59.382  0.00  0.00     0.051 C 
BRANCH  39  40
HETATM   40  C   UNK     0      35.786   7.078  59.382  0.00  0.00     0.114 C 
BRANCH  40  41
HETATM   41  C   UNK     0      36.455   6.101  60.212  0.00  0.00     0.139 C 
HETATM   42  O   UNK     0      36.457   6.142  61.450  0.00  0.00    -0.650 OA
BRANCH  41  43
HETATM   43  O   UNK     0      37.154   5.028  59.590  0.00  0.00    -0.776 OA
HETATM   44  H   UNK     0      38.126   4.947  59.862  0.00  0.00     0.167 HD
ENDBRANCH  41  43
ENDBRANCH  40  41
ENDBRANCH  39  40
ENDBRANCH  27  39
BRANCH  11  45
HETATM   45  C   UNK     0      39.013  15.455  66.362  0.00  0.00     0.051 C 
BRANCH  45  46
HETATM   46  C   UNK     0      40.024  16.531  66.200  0.00  0.00     0.114 C 
BRANCH  46  47
HETATM   47  C   UNK     0      41.354  15.940  66.522  0.00  0.00     0.139 C 
HETATM   48  O   UNK     0      41.488  14.710  66.453  0.00  0.00    -0.650 OA
BRANCH  47  49
HETATM   49  O   UNK     0      42.408  16.738  66.888  0.00  0.00    -0.776 OA
HETATM   50  H   UNK     0      43.066  16.467  67.629  0.00  0.00     0.167 HD
ENDBRANCH  47  49
ENDBRANCH  46  47
ENDBRANCH  45  46
ENDBRANCH  11  45
BRANCH  18  51
HETATM   51  C   UNK     0      39.474   8.737  64.515  0.00  0.00     0.051 C 
BRANCH  51  52
HETATM   52  C   UNK     0      38.339   8.426  65.480  0.00  0.00     0.114 C 
BRANCH  52  53
HETATM   53  C   UNK     0      37.936   7.008  65.416  0.00  0.00     0.139 C 
HETATM   54  O   UNK     0      37.924   6.318  66.447  0.00  0.00    -0.650 OA
BRANCH  53  55
HETATM   55  O   UNK     0      37.579   6.456  64.209  0.00  0.00    -0.776 OA
HETATM   56  H   UNK     0      36.785   6.702  63.667  0.00  0.00     0.167 HD
ENDBRANCH  53  55
ENDBRANCH  52  53
ENDBRANCH  51  52
ENDBRANCH  18  51
TORSDOF 16
ENDMDL
MODEL 5
REMARK VINA RESULT:      -9.8      1.672      7.201
REMARK  16 active torsions:
REMARK  status: ('A' for Active; 'I' for Inactive)
REMARK    1  A    between atoms: C_6  and  C_7 
REMARK    2  A    between atoms: C_7  and  C_8 
REMARK    3  A    between atoms: C_8  and  C_9 
REMARK    4  A    between atoms: C_9  and  O_11 
REMARK    5  A    between atoms: C_16  and  C_17 
REMARK    6  A    between atoms: C_17  and  C_18 
REMARK    7  A    between atoms: C_18  and  C_19 
REMARK    8  A    between atoms: C_19  and  O_21 
REMARK    9  A    between atoms: C_28  and  C_29 
REMARK   10  A    between atoms: C_29  and  C_30 
REMARK   11  A    between atoms: C_30  and  C_31 
REMARK   12  A    between atoms: C_31  and  O_33 
REMARK   13  A    between atoms: C_42  and  C_43 
REMARK   14  A    between atoms: C_43  and  C_44 
REMARK   15  A    between atoms: C_44  and  C_45 
REMARK   16  A    between atoms: C_45  and  O_47 
ROOT
HETATM    1  C   UNK     0      36.456  19.916  65.370  0.00  0.00     0.051 C 
HETATM    2  C   UNK     0      37.031  18.531  65.587  0.00  0.00    -0.031 A 
HETATM    3  C   UNK     0      36.386  17.355  65.936  0.00  0.00     0.021 A 
HETATM    4  N   UNK     0      37.303  16.365  66.051  0.00  0.00    -0.361 N 
HETATM    5  C   UNK     0      38.518  16.883  65.773  0.00  0.00     0.022 A 
HETATM    6  C   UNK     0      38.384  18.236  65.481  0.00  0.00    -0.027 A 
HETATM    7  C   UNK     0      39.844  16.196  65.668  0.00  0.00     0.115 C 
HETATM    8  C   UNK     0      39.865  14.861  64.945  0.00  0.00     0.021 A 
HETATM    9  N   UNK     0      39.142  14.475  63.882  0.00  0.00    -0.361 N 
HETATM   10  C   UNK     0      39.420  13.177  63.636  0.00  0.00     0.022 A 
HETATM   11  C   UNK     0      40.354  12.717  64.560  0.00  0.00    -0.027 A 
HETATM   12  C   UNK     0      40.638  13.774  65.387  0.00  0.00    -0.031 A 
HETATM   13  C   UNK     0      41.611  13.740  66.545  0.00  0.00     0.051 C 
HETATM   14  C   UNK     0      38.780  12.307  62.558  0.00  0.00     0.115 C 
HETATM   15  C   UNK     0      37.275  12.150  62.707  0.00  0.00     0.021 A 
HETATM   16  N   UNK     0      36.345  13.124  62.723  0.00  0.00    -0.361 N 
HETATM   17  C   UNK     0      35.146  12.581  62.944  0.00  0.00     0.022 A 
HETATM   18  C   UNK     0      35.300  11.186  63.068  0.00  0.00    -0.027 A 
HETATM   19  C   UNK     0      36.638  10.929  62.917  0.00  0.00    -0.031 A 
HETATM   20  C   UNK     0      37.238   9.535  62.945  0.00  0.00     0.051 C 
HETATM   21  C   UNK     0      33.798  13.242  63.122  0.00  0.00     0.115 C 
HETATM   22  C   UNK     0      33.767  14.591  63.801  0.00  0.00     0.022 A 
HETATM   23  N   UNK     0      34.478  15.005  64.858  0.00  0.00    -0.361 N 
HETATM   24  C   UNK     0      34.244  16.321  65.037  0.00  0.00     0.021 A 
HETATM   25  C   UNK     0      33.353  16.763  64.078  0.00  0.00    -0.031 A 
HETATM   26  C   UNK     0      32.759  18.144  63.893  0.00  0.00     0.051 C 
HETATM   27  C   UNK     0      33.033  15.674  63.275  0.00  0.00    -0.027 A 
HETATM   28  C   UNK     0      34.891  17.251  66.049  0.00  0.00     0.115 C 
HETATM   29  H   UNK     0      37.091  15.317  66.365  0.00  0.00     0.165 HD
HETATM   30  H   UNK     0      38.473  15.130  63.272  0.00  0.00     0.165 HD
HETATM   31  H   UNK     0      36.532  14.212  62.526  0.00  0.00     0.165 HD
HETATM   32  H   UNK     0      35.119  14.361  65.515  0.00  0.00     0.165 HD
ENDROOT
BRANCH   6  33
HETATM   33  C   UNK     0      39.432  19.258  65.117  0.00  0.00     0.051 C 
BRANCH  33  34
HETATM   34  C   UNK     0      39.887  20.017  66.341  0.00  0.00     0.114 C 
BRANCH  34  35
HETATM   35  C   UNK     0      39.930  21.463  65.980  0.00  0.00     0.139 C 
HETATM   36  O   UNK     0      39.383  21.870  64.914  0.00  0.00    -0.650 OA
BRANCH  35  37
HETATM   37  O   UNK     0      40.556  22.416  66.774  0.00  0.00    -0.776 OA
HETATM   38  H   UNK     0      40.379  23.402  66.666  0.00  0.00     0.167 HD
ENDBRANCH  35  37
ENDBRANCH  34  35
ENDBRANCH  33  34
ENDBRANCH   6  33
BRANCH  27  39
HETATM   39  C   UNK     0      32.040  15.746  62.169  0.00  0.00     0.051 C 
BRANCH  39  40
HETATM   40  C   UNK     0      32.535  15.780  60.793  0.00  0.00     0.114 C 
BRANCH  40  41
HETATM   41  C   UNK     0      33.879  16.200  60.467  0.00  0.00     0.139 C 
HETATM   42  O   UNK     0      34.172  17.355  60.132  0.00  0.00    -0.650 OA
BRANCH  41  43
HETATM   43  O   UNK     0      34.935  15.246  60.530  0.00  0.00    -0.776 OA
HETATM   44  H   UNK     0      35.800  15.604  60.918  0.00  0.00     0.167 HD
ENDBRANCH  41  43
ENDBRANCH  40  41
ENDBRANCH  39  40
ENDBRANCH  27  39
BRANCH  11  45
HETATM   45  C   UNK     0      40.968  11.348  64.676  0.00  0.00     0.051 C 
BRANCH  45  46
HETATM   46  C   UNK     0      40.102  10.351  65.355  0.00  0.00     0.114 C 
BRANCH  46  47
HETATM   47  C   UNK     0      40.688  10.100  66.702  0.00  0.00     0.139 C 
HETATM   48  O   UNK     0      41.886  10.361  66.885  0.00  0.00    -0.650 OA
BRANCH  47  49
HETATM   49  O   UNK     0      39.921   9.590  67.719  0.00  0.00    -0.776 OA
HETATM   50  H   UNK     0      40.219   8.779  68.273  0.00  0.00     0.167 HD
ENDBRANCH  47  49
ENDBRANCH  46  47
ENDBRANCH  45  46
ENDBRANCH  11  45
BRANCH  18  51
HETATM   51  C   UNK     0      34.228  10.152  63.298  0.00  0.00     0.051 C 
BRANCH  51  52
HETATM   52  C   UNK     0      34.293   9.792  64.775  0.00  0.00     0.114 C 
BRANCH  52  53
HETATM   53  C   UNK     0      33.378  10.620  65.583  0.00  0.00     0.139 C 
HETATM   54  O   UNK     0      32.277  10.960  65.123  0.00  0.00    -0.650 OA
BRANCH  53  55
HETATM   55  O   UNK     0      33.754  11.014  66.845  0.00  0.00    -0.776 OA
HETATM   56  H   UNK     0      33.141  11.223  67.598  0.00  0.00     0.167 HD
ENDBRANCH  53  55
ENDBRANCH  52  53
ENDBRANCH  51  52
ENDBRANCH  18  51
TORSDOF 16
ENDMDL
MODEL 6
REMARK VINA RESULT:      -9.7      2.761      7.457
REMARK  16 active torsions:
REMARK  status: ('A' for Active; 'I' for Inactive)
REMARK    1  A    between atoms: C_6  and  C_7 
REMARK    2  A    between atoms: C_7  and  C_8 
REMARK    3  A    between atoms: C_8  and  C_9 
REMARK    4  A    between atoms: C_9  and  O_11 
REMARK    5  A    between atoms: C_16  and  C_17 
REMARK    6  A    between atoms: C_17  and  C_18 
REMARK    7  A    between atoms: C_18  and  C_19 
REMARK    8  A    between atoms: C_19  and  O_21 
REMARK    9  A    between atoms: C_28  and  C_29 
REMARK   10  A    between atoms: C_29  and  C_30 
REMARK   11  A    between atoms: C_30  and  C_31 
REMARK   12  A    between atoms: C_31  and  O_33 
REMARK   13  A    between atoms: C_42  and  C_43 
REMARK   14  A    between atoms: C_43  and  C_44 
REMARK   15  A    between atoms: C_44  and  C_45 
REMARK   16  A    between atoms: C_45  and  O_47 
ROOT
HETATM    1  C   UNK     0      36.934  19.227  65.427  0.00  0.00     0.051 C 
HETATM    2  C   UNK     0      37.208  17.741  65.543  0.00  0.00    -0.031 A 
HETATM    3  C   UNK     0      36.321  16.677  65.496  0.00  0.00     0.021 A 
HETATM    4  N   UNK     0      37.007  15.523  65.676  0.00  0.00    -0.361 N 
HETATM    5  C   UNK     0      38.312  15.828  65.828  0.00  0.00     0.022 A 
HETATM    6  C   UNK     0      38.473  17.207  65.754  0.00  0.00    -0.027 A 
HETATM    7  C   UNK     0      39.493  14.918  65.963  0.00  0.00     0.115 C 
HETATM    8  C   UNK     0      39.527  13.706  65.049  0.00  0.00     0.021 A 
HETATM    9  N   UNK     0      39.100  13.603  63.781  0.00  0.00    -0.361 N 
HETATM   10  C   UNK     0      39.242  12.317  63.394  0.00  0.00     0.022 A 
HETATM   11  C   UNK     0      39.784  11.574  64.439  0.00  0.00    -0.027 A 
HETATM   12  C   UNK     0      39.966  12.443  65.484  0.00  0.00    -0.031 A 
HETATM   13  C   UNK     0      40.539  12.077  66.835  0.00  0.00     0.051 C 
HETATM   14  C   UNK     0      38.825  11.729  62.049  0.00  0.00     0.115 C 
HETATM   15  C   UNK     0      37.337  11.848  61.760  0.00  0.00     0.021 A 
HETATM   16  N   UNK     0      36.599  12.972  61.697  0.00  0.00    -0.361 N 
HETATM   17  C   UNK     0      35.321  12.646  61.490  0.00  0.00     0.022 A 
HETATM   18  C   UNK     0      35.223  11.243  61.405  0.00  0.00    -0.027 A 
HETATM   19  C   UNK     0      36.493  10.755  61.574  0.00  0.00    -0.031 A 
HETATM   20  C   UNK     0      36.844   9.280  61.516  0.00  0.00     0.051 C 
HETATM   21  C   UNK     0      34.095  13.527  61.415  0.00  0.00     0.115 C 
HETATM   22  C   UNK     0      34.066  14.760  62.286  0.00  0.00     0.022 A 
HETATM   23  N   UNK     0      34.488  14.893  63.551  0.00  0.00    -0.361 N 
HETATM   24  C   UNK     0      34.410  16.196  63.889  0.00  0.00     0.021 A 
HETATM   25  C   UNK     0      33.917  16.918  62.819  0.00  0.00    -0.031 A 
HETATM   26  C   UNK     0      33.615  18.400  62.728  0.00  0.00     0.051 C 
HETATM   27  C   UNK     0      33.689  16.021  61.782  0.00  0.00    -0.027 A 
HETATM   28  C   UNK     0      34.861  16.849  65.184  0.00  0.00     0.115 C 
HETATM   29  H   UNK     0      36.558  14.504  65.733  0.00  0.00     0.165 HD
HETATM   30  H   UNK     0      38.745  14.446  63.139  0.00  0.00     0.165 HD
HETATM   31  H   UNK     0      36.995  14.019  61.752  0.00  0.00     0.165 HD
HETATM   32  H   UNK     0      34.804  14.060  64.232  0.00  0.00     0.165 HD
ENDROOT
BRANCH   6  33
HETATM   33  C   UNK     0      39.720  18.046  65.869  0.00  0.00     0.051 C 
BRANCH  33  34
HETATM   34  C   UNK     0      40.098  18.248  67.317  0.00  0.00     0.114 C 
BRANCH  34  35
HETATM   35  C   UNK     0      41.574  18.060  67.424  0.00  0.00     0.139 C 
HETATM   36  O   UNK     0      42.208  18.542  68.407  0.00  0.00    -0.650 OA
BRANCH  35  37
HETATM   37  O   UNK     0      42.310  17.360  66.476  0.00  0.00    -0.776 OA
HETATM   38  H   UNK     0      42.368  17.660  65.516  0.00  0.00     0.167 HD
ENDBRANCH  35  37
ENDBRANCH  34  35
ENDBRANCH  33  34
ENDBRANCH   6  33
BRANCH  27  39
HETATM   39  C   UNK     0      33.087  16.422  60.481  0.00  0.00     0.051 C 
BRANCH  39  40
HETATM   40  C   UNK     0      33.964  16.536  59.317  0.00  0.00     0.114 C 
BRANCH  40  41
HETATM   41  C   UNK     0      34.104  17.769  58.575  0.00  0.00     0.139 C 
HETATM   42  O   UNK     0      33.781  18.877  59.024  0.00  0.00    -0.650 OA
BRANCH  41  43
HETATM   43  O   UNK     0      34.639  17.726  57.256  0.00  0.00    -0.776 OA
HETATM   44  H   UNK     0      35.512  17.218  57.175  0.00  0.00     0.167 HD
ENDBRANCH  41  43
ENDBRANCH  40  41
ENDBRANCH  39  40
ENDBRANCH  27  39
BRANCH  11  45
HETATM   45  C   UNK     0      40.126  10.109  64.473  0.00  0.00     0.051 C 
BRANCH  45  46
HETATM   46  C   UNK     0      38.954   9.216  64.663  0.00  0.00     0.114 C 
BRANCH  46  47
HETATM   47  C   UNK     0      39.227   8.377  65.864  0.00  0.00     0.139 C 
HETATM   48  O   UNK     0      40.129   8.727  66.639  0.00  0.00    -0.650 OA
BRANCH  47  49
HETATM   49  O   UNK     0      38.499   7.240  66.107  0.00  0.00    -0.776 OA
HETATM   50  H   UNK     0      38.946   6.326  66.248  0.00  0.00     0.167 HD
ENDBRANCH  47  49
ENDBRANCH  46  47
ENDBRANCH  45  46
ENDBRANCH  11  45
BRANCH  18  51
HETATM   51  C   UNK     0      33.990  10.415  61.154  0.00  0.00     0.051 C 
BRANCH  51  52
HETATM   52  C   UNK     0      33.751  10.450  59.652  0.00  0.00     0.114 C 
BRANCH  52  53
HETATM   53  C   UNK     0      34.316   9.265  58.978  0.00  0.00     0.139 C 
HETATM   54  O   UNK     0      34.051   8.127  59.396  0.00  0.00    -0.650 OA
BRANCH  53  55
HETATM   55  O   UNK     0      35.139   9.430  57.890  0.00  0.00    -0.776 OA
HETATM   56  H   UNK     0      36.119   9.276  57.870  0.00  0.00     0.167 HD
ENDBRANCH  53  55
ENDBRANCH  52  53
ENDBRANCH  51  52
ENDBRANCH  18  51
TORSDOF 16
ENDMDL
MODEL 7
REMARK VINA RESULT:      -9.5      3.591      8.393
REMARK  16 active torsions:
REMARK  status: ('A' for Active; 'I' for Inactive)
REMARK    1  A    between atoms: C_6  and  C_7 
REMARK    2  A    between atoms: C_7  and  C_8 
REMARK    3  A    between atoms: C_8  and  C_9 
REMARK    4  A    between atoms: C_9  and  O_11 
REMARK    5  A    between atoms: C_16  and  C_17 
REMARK    6  A    between atoms: C_17  and  C_18 
REMARK    7  A    between atoms: C_18  and  C_19 
REMARK    8  A    between atoms: C_19  and  O_21 
REMARK    9  A    between atoms: C_28  and  C_29 
REMARK   10  A    between atoms: C_29  and  C_30 
REMARK   11  A    between atoms: C_30  and  C_31 
REMARK   12  A    between atoms: C_31  and  O_33 
REMARK   13  A    between atoms: C_42  and  C_43 
REMARK   14  A    between atoms: C_43  and  C_44 
REMARK   15  A    between atoms: C_44  and  C_45 
REMARK   16  A    between atoms: C_45  and  O_47 
ROOT
HETATM    1  C   UNK     0      31.188  13.586  58.531  0.00  0.00     0.051 C 
HETATM    2  C   UNK     0      31.972  13.722  59.821  0.00  0.00    -0.031 A 
HETATM    3  C   UNK     0      32.373  12.741  60.714  0.00  0.00     0.021 A 
HETATM    4  N   UNK     0      33.025  13.325  61.747  0.00  0.00    -0.361 N 
HETATM    5  C   UNK     0      33.055  14.656  61.528  0.00  0.00     0.022 A 
HETATM    6  C   UNK     0      32.402  14.939  60.332  0.00  0.00    -0.027 A 
HETATM    7  C   UNK     0      33.731  15.735  62.314  0.00  0.00     0.115 C 
HETATM    8  C   UNK     0      35.133  15.437  62.815  0.00  0.00     0.021 A 
HETATM    9  N   UNK     0      36.102  14.728  62.216  0.00  0.00    -0.361 N 
HETATM   10  C   UNK     0      37.148  14.645  63.066  0.00  0.00     0.022 A 
HETATM   11  C   UNK     0      36.847  15.326  64.242  0.00  0.00    -0.027 A 
HETATM   12  C   UNK     0      35.579  15.828  64.090  0.00  0.00    -0.031 A 
HETATM   13  C   UNK     0      34.835  16.648  65.120  0.00  0.00     0.051 C 
HETATM   14  C   UNK     0      38.445  13.878  62.826  0.00  0.00     0.115 C 
HETATM   15  C   UNK     0      38.249  12.384  62.625  0.00  0.00     0.021 A 
HETATM   16  N   UNK     0      37.507  11.772  61.684  0.00  0.00    -0.361 N 
HETATM   17  C   UNK     0      37.538  10.454  61.889  0.00  0.00     0.022 A 
HETATM   18  C   UNK     0      38.347  10.193  63.013  0.00  0.00    -0.027 A 
HETATM   19  C   UNK     0      38.787  11.410  63.464  0.00  0.00    -0.031 A 
HETATM   20  C   UNK     0      39.723  11.583  64.646  0.00  0.00     0.051 C 
HETATM   21  C   UNK     0      36.819   9.340  61.162  0.00  0.00     0.115 C 
HETATM   22  C   UNK     0      35.441   9.636  60.619  0.00  0.00     0.022 A 
HETATM   23  N   UNK     0      34.457  10.342  61.192  0.00  0.00    -0.361 N 
HETATM   24  C   UNK     0      33.457  10.479  60.298  0.00  0.00     0.021 A 
HETATM   25  C   UNK     0      33.801   9.836  59.124  0.00  0.00    -0.031 A 
HETATM   26  C   UNK     0      32.994   9.678  57.853  0.00  0.00     0.051 C 
HETATM   27  C   UNK     0      35.066   9.289  59.305  0.00  0.00    -0.027 A 
HETATM   28  C   UNK     0      32.173  11.275  60.454  0.00  0.00     0.115 C 
HETATM   29  H   UNK     0      33.424  12.797  62.644  0.00  0.00     0.165 HD
HETATM   30  H   UNK     0      36.071  14.328  61.173  0.00  0.00     0.165 HD
HETATM   31  H   UNK     0      36.988  12.277  60.827  0.00  0.00     0.165 HD
HETATM   32  H   UNK     0      34.441  10.714  62.250  0.00  0.00     0.165 HD
ENDROOT
BRANCH   6  33
HETATM   33  C   UNK     0      32.158  16.261  59.650  0.00  0.00     0.051 C 
BRANCH  33  34
HETATM   34  C   UNK     0      30.704  16.656  59.753  0.00  0.00     0.114 C 
BRANCH  34  35
HETATM   35  C   UNK     0      30.458  17.094  61.157  0.00  0.00     0.139 C 
HETATM   36  O   UNK     0      31.250  17.907  61.718  0.00  0.00    -0.650 OA
BRANCH  35  37
HETATM   37  O   UNK     0      29.375  16.647  61.902  0.00  0.00    -0.776 OA
HETATM   38  H   UNK     0      29.129  15.671  61.957  0.00  0.00     0.167 HD
ENDBRANCH  35  37
ENDBRANCH  34  35
ENDBRANCH  33  34
ENDBRANCH   6  33
BRANCH  27  39
HETATM   39  C   UNK     0      35.744   8.456  58.275  0.00  0.00     0.051 C 
BRANCH  39  40
HETATM   40  C   UNK     0      35.620   7.002  58.367  0.00  0.00     0.114 C 
BRANCH  40  41
HETATM   41  C   UNK     0      34.514   6.284  57.773  0.00  0.00     0.139 C 
HETATM   42  O   UNK     0      34.186   6.397  56.584  0.00  0.00    -0.650 OA
BRANCH  41  43
HETATM   43  O   UNK     0      33.751   5.397  58.584  0.00  0.00    -0.776 OA
HETATM   44  H   UNK     0      33.572   5.735  59.522  0.00  0.00     0.167 HD
ENDBRANCH  41  43
ENDBRANCH  40  41
ENDBRANCH  39  40
ENDBRANCH  27  39
BRANCH  11  45
HETATM   45  C   UNK     0      37.701  15.513  65.467  0.00  0.00     0.051 C 
BRANCH  45  46
HETATM   46  C   UNK     0      38.039  14.248  66.169  0.00  0.00     0.114 C 
BRANCH  46  47
HETATM   47  C   UNK     0      36.754  13.556  66.473  0.00  0.00     0.139 C 
HETATM   48  O   UNK     0      35.926  14.132  67.192  0.00  0.00    -0.650 OA
BRANCH  47  49
HETATM   49  O   UNK     0      36.492  12.307  65.968  0.00  0.00    -0.776 OA
HETATM   50  H   UNK     0      37.223  11.729  65.536  0.00  0.00     0.167 HD
ENDBRANCH  47  49
ENDBRANCH  46  47
ENDBRANCH  45  46
ENDBRANCH  11  45
BRANCH  18  51
HETATM   51  C   UNK     0      38.698   8.855  63.611  0.00  0.00     0.051 C 
BRANCH  51  52
HETATM   52  C   UNK     0      37.655   8.582  64.684  0.00  0.00     0.114 C 
BRANCH  52  53
HETATM   53  C   UNK     0      37.384   7.138  64.832  0.00  0.00     0.139 C 
HETATM   54  O   UNK     0      37.072   6.675  65.941  0.00  0.00    -0.650 OA
BRANCH  53  55
HETATM   55  O   UNK     0      37.484   6.313  63.739  0.00  0.00    -0.776 OA
HETATM   56  H   UNK     0      36.731   5.852  63.285  0.00  0.00     0.167 HD
ENDBRANCH  53  55
ENDBRANCH  52  53
ENDBRANCH  51  52
ENDBRANCH  18  51
TORSDOF 16
ENDMDL
MODEL 8
REMARK VINA RESULT:      -9.5      3.645      7.822
REMARK  16 active torsions:
REMARK  status: ('A' for Active; 'I' for Inactive)
REMARK    1  A    between atoms: C_6  and  C_7 
REMARK    2  A    between atoms: C_7  and  C_8 
REMARK    3  A    between atoms: C_8  and  C_9 
REMARK    4  A    between atoms: C_9  and  O_11 
REMARK    5  A    between atoms: C_16  and  C_17 
REMARK    6  A    between atoms: C_17  and  C_18 
REMARK    7  A    between atoms: C_18  and  C_19 
REMARK    8  A    between atoms: C_19  and  O_21 
REMARK    9  A    between atoms: C_28  and  C_29 
REMARK   10  A    between atoms: C_29  and  C_30 
REMARK   11  A    between atoms: C_30  and  C_31 
REMARK   12  A    between atoms: C_31  and  O_33 
REMARK   13  A    between atoms: C_42  and  C_43 
REMARK   14  A    between atoms: C_43  and  C_44 
REMARK   15  A    between atoms: C_44  and  C_45 
REMARK   16  A    between atoms: C_45  and  O_47 
ROOT
HETATM    1  C   UNK     0      38.814  13.410  66.275  0.00  0.00     0.051 C 
HETATM    2  C   UNK     0      38.060  13.738  65.002  0.00  0.00    -0.031 A 
HETATM    3  C   UNK     0      38.195  13.194  63.734  0.00  0.00     0.021 A 
HETATM    4  N   UNK     0      37.333  13.814  62.894  0.00  0.00    -0.361 N 
HETATM    5  C   UNK     0      36.646  14.735  63.600  0.00  0.00     0.022 A 
HETATM    6  C   UNK     0      37.078  14.716  64.922  0.00  0.00    -0.027 A 
HETATM    7  C   UNK     0      35.518  15.619  63.168  0.00  0.00     0.115 C 
HETATM    8  C   UNK     0      34.448  14.982  62.299  0.00  0.00     0.021 A 
HETATM    9  N   UNK     0      33.963  13.732  62.351  0.00  0.00    -0.361 N 
HETATM   10  C   UNK     0      33.094  13.576  61.330  0.00  0.00     0.022 A 
HETATM   11  C   UNK     0      33.009  14.762  60.606  0.00  0.00    -0.027 A 
HETATM   12  C   UNK     0      33.859  15.652  61.211  0.00  0.00    -0.031 A 
HETATM   13  C   UNK     0      34.091  17.079  60.768  0.00  0.00     0.051 C 
HETATM   14  C   UNK     0      32.351  12.294  60.966  0.00  0.00     0.115 C 
HETATM   15  C   UNK     0      33.266  11.133  60.609  0.00  0.00     0.021 A 
HETATM   16  N   UNK     0      34.220  10.573  61.376  0.00  0.00    -0.361 N 
HETATM   17  C   UNK     0      34.848   9.627  60.674  0.00  0.00     0.022 A 
HETATM   18  C   UNK     0      34.270   9.562  59.391  0.00  0.00    -0.027 A 
HETATM   19  C   UNK     0      33.280  10.509  59.363  0.00  0.00    -0.031 A 
HETATM   20  C   UNK     0      32.375  10.749  58.168  0.00  0.00     0.051 C 
HETATM   21  C   UNK     0      36.030   8.762  61.050  0.00  0.00     0.115 C 
HETATM   22  C   UNK     0      37.081   9.369  61.950  0.00  0.00     0.022 A 
HETATM   23  N   UNK     0      37.579  10.612  61.923  0.00  0.00    -0.361 N 
HETATM   24  C   UNK     0      38.383  10.768  62.994  0.00  0.00     0.021 A 
HETATM   25  C   UNK     0      38.412   9.594  63.722  0.00  0.00    -0.031 A 
HETATM   26  C   UNK     0      39.197   9.268  64.975  0.00  0.00     0.051 C 
HETATM   27  C   UNK     0      37.586   8.684  63.073  0.00  0.00    -0.027 A 
HETATM   28  C   UNK     0      39.100  12.030  63.442  0.00  0.00     0.115 C 
HETATM   29  H   UNK     0      37.245  13.624  61.799  0.00  0.00     0.165 HD
HETATM   30  H   UNK     0      34.195  12.972  63.137  0.00  0.00     0.165 HD
HETATM   31  H   UNK     0      34.423  10.816  62.452  0.00  0.00     0.165 HD
HETATM   32  H   UNK     0      37.402  11.377  61.124  0.00  0.00     0.165 HD
ENDROOT
BRANCH   6  33
HETATM   33  C   UNK     0      36.635  15.548  66.099  0.00  0.00     0.051 C 
BRANCH  33  34
HETATM   34  C   UNK     0      37.393  16.854  66.147  0.00  0.00     0.114 C 
BRANCH  34  35
HETATM   35  C   UNK     0      36.417  17.947  65.872  0.00  0.00     0.139 C 
HETATM   36  O   UNK     0      35.174  17.733  65.980  0.00  0.00    -0.650 OA
BRANCH  35  37
HETATM   37  O   UNK     0      36.810  19.225  65.496  0.00  0.00    -0.776 OA
HETATM   38  H   UNK     0      36.333  20.050  65.823  0.00  0.00     0.167 HD
ENDBRANCH  35  37
ENDBRANCH  34  35
ENDBRANCH  33  34
ENDBRANCH   6  33
BRANCH  27  39
HETATM   39  C   UNK     0      37.418   7.276  63.526  0.00  0.00     0.051 C 
BRANCH  39  40
HETATM   40  C   UNK     0      36.089   6.837  63.951  0.00  0.00     0.114 C 
BRANCH  40  41
HETATM   41  C   UNK     0      35.294   7.591  64.895  0.00  0.00     0.139 C 
HETATM   42  O   UNK     0      34.952   8.767  64.715  0.00  0.00    -0.650 OA
BRANCH  41  43
HETATM   43  O   UNK     0      34.875   6.962  66.102  0.00  0.00    -0.776 OA
HETATM   44  H   UNK     0      34.470   6.042  65.977  0.00  0.00     0.167 HD
ENDBRANCH  41  43
ENDBRANCH  40  41
ENDBRANCH  39  40
ENDBRANCH  27  39
BRANCH  11  45
HETATM   45  C   UNK     0      32.168  15.068  59.396  0.00  0.00     0.051 C 
BRANCH  45  46
HETATM   46  C   UNK     0      31.023  15.975  59.667  0.00  0.00     0.114 C 
BRANCH  46  47
HETATM   47  C   UNK     0      31.114  17.103  58.697  0.00  0.00     0.139 C 
HETATM   48  O   UNK     0      32.041  17.104  57.874  0.00  0.00    -0.650 OA
BRANCH  47  49
HETATM   49  O   UNK     0      30.193  18.120  58.714  0.00  0.00    -0.776 OA
HETATM   50  H   UNK     0      29.183  17.942  58.672  0.00  0.00     0.167 HD
ENDBRANCH  47  49
ENDBRANCH  46  47
ENDBRANCH  45  46
ENDBRANCH  11  45
BRANCH  18  51
HETATM   51  C   UNK     0      34.628   8.632  58.260  0.00  0.00     0.051 C 
BRANCH  51  52
HETATM   52  C   UNK     0      33.491   7.627  58.159  0.00  0.00     0.114 C 
BRANCH  52  53
HETATM   53  C   UNK     0      33.122   7.354  56.756  0.00  0.00     0.139 C 
HETATM   54  O   UNK     0      33.881   6.691  56.032  0.00  0.00    -0.650 OA
BRANCH  53  55
HETATM   55  O   UNK     0      31.938   7.839  56.258  0.00  0.00    -0.776 OA
HETATM   56  H   UNK     0      31.220   7.303  55.830  0.00  0.00     0.167 HD
ENDBRANCH  53  55
ENDBRANCH  52  53
ENDBRANCH  51  52
ENDBRANCH  18  51
TORSDOF 16
ENDMDL
MODEL 9
REMARK VINA RESULT:      -9.4      3.429      8.279
REMARK  16 active torsions:
REMARK  status: ('A' for Active; 'I' for Inactive)
REMARK    1  A    between atoms: C_6  and  C_7 
REMARK    2  A    between atoms: C_7  and  C_8 
REMARK    3  A    between atoms: C_8  and  C_9 
REMARK    4  A    between atoms: C_9  and  O_11 
REMARK    5  A    between atoms: C_16  and  C_17 
REMARK    6  A    between atoms: C_17  and  C_18 
REMARK    7  A    between atoms: C_18  and  C_19 
REMARK    8  A    between atoms: C_19  and  O_21 
REMARK    9  A    between atoms: C_28  and  C_29 
REMARK   10  A    between atoms: C_29  and  C_30 
REMARK   11  A    between atoms: C_30  and  C_31 
REMARK   12  A    between atoms: C_31  and  O_33 
REMARK   13  A    between atoms: C_42  and  C_43 
REMARK   14  A    between atoms: C_43  and  C_44 
REMARK   15  A    between atoms: C_44  and  C_45 
REMARK   16  A    between atoms: C_45  and  O_47 
ROOT
HETATM    1  C   UNK     0      32.195  15.109  59.408  0.00  0.00     0.051 C 
HETATM    2  C   UNK     0      33.037  14.775  60.622  0.00  0.00    -0.031 A 
HETATM    3  C   UNK     0      33.046  13.626  61.397  0.00  0.00     0.021 A 
HETATM    4  N   UNK     0      33.940  13.779  62.402  0.00  0.00    -0.361 N 
HETATM    5  C   UNK     0      34.508  14.996  62.279  0.00  0.00     0.022 A 
HETATM    6  C   UNK     0      33.964  15.648  61.177  0.00  0.00    -0.027 A 
HETATM    7  C   UNK     0      35.617  15.615  63.073  0.00  0.00     0.115 C 
HETATM    8  C   UNK     0      36.794  14.718  63.412  0.00  0.00     0.021 A 
HETATM    9  N   UNK     0      37.344  13.744  62.671  0.00  0.00    -0.361 N 
HETATM   10  C   UNK     0      38.308  13.150  63.407  0.00  0.00     0.022 A 
HETATM   11  C   UNK     0      38.387  13.765  64.653  0.00  0.00    -0.027 A 
HETATM   12  C   UNK     0      37.436  14.753  64.663  0.00  0.00    -0.031 A 
HETATM   13  C   UNK     0      37.162  15.691  65.818  0.00  0.00     0.051 C 
HETATM   14  C   UNK     0      39.152  11.951  62.987  0.00  0.00     0.115 C 
HETATM   15  C   UNK     0      38.342  10.698  62.697  0.00  0.00     0.021 A 
HETATM   16  N   UNK     0      37.358  10.547  61.790  0.00  0.00    -0.361 N 
HETATM   17  C   UNK     0      36.850   9.317  61.894  0.00  0.00     0.022 A 
HETATM   18  C   UNK     0      37.541   8.630  62.911  0.00  0.00    -0.027 A 
HETATM   19  C   UNK     0      38.474   9.505  63.405  0.00  0.00    -0.031 A 
HETATM   20  C   UNK     0      39.464   9.154  64.501  0.00  0.00     0.051 C 
HETATM   21  C   UNK     0      35.692   8.679  61.160  0.00  0.00     0.115 C 
HETATM   22  C   UNK     0      34.533   9.569  60.778  0.00  0.00     0.022 A 
HETATM   23  N   UNK     0      33.968  10.549  61.494  0.00  0.00    -0.361 N 
HETATM   24  C   UNK     0      33.065  11.177  60.714  0.00  0.00     0.021 A 
HETATM   25  C   UNK     0      33.041  10.580  59.468  0.00  0.00    -0.031 A 
HETATM   26  C   UNK     0      32.169  10.903  58.273  0.00  0.00     0.051 C 
HETATM   27  C   UNK     0      33.972   9.548  59.485  0.00  0.00    -0.027 A 
HETATM   28  C   UNK     0      32.239  12.407  61.052  0.00  0.00     0.115 C 
HETATM   29  H   UNK     0      34.136  13.041  63.215  0.00  0.00     0.165 HD
HETATM   30  H   UNK     0      37.089  13.505  61.609  0.00  0.00     0.165 HD
HETATM   31  H   UNK     0      37.048  11.308  61.027  0.00  0.00     0.165 HD
HETATM   32  H   UNK     0      34.170  10.780  62.572  0.00  0.00     0.165 HD
ENDROOT
BRANCH   6  33
HETATM   33  C   UNK     0      34.253  17.019  60.620  0.00  0.00     0.051 C 
BRANCH  33  34
HETATM   34  C   UNK     0      33.781  18.093  61.572  0.00  0.00     0.114 C 
BRANCH  34  35
HETATM   35  C   UNK     0      32.518  18.659  61.017  0.00  0.00     0.139 C 
HETATM   36  O   UNK     0      32.553  19.434  60.018  0.00  0.00    -0.650 OA
BRANCH  35  37
HETATM   37  O   UNK     0      31.269  18.370  61.552  0.00  0.00    -0.776 OA
HETATM   38  H   UNK     0      30.674  17.655  61.165  0.00  0.00     0.167 HD
ENDBRANCH  35  37
ENDBRANCH  34  35
ENDBRANCH  33  34
ENDBRANCH   6  33
BRANCH  27  39
HETATM   39  C   UNK     0      34.181   8.626  58.335  0.00  0.00     0.051 C 
BRANCH  39  40
HETATM   40  C   UNK     0      33.337   7.436  58.238  0.00  0.00     0.114 C 
BRANCH  40  41
HETATM   41  C   UNK     0      33.852   6.159  57.797  0.00  0.00     0.139 C 
HETATM   42  O   UNK     0      33.713   5.726  56.645  0.00  0.00    -0.650 OA
BRANCH  41  43
HETATM   43  O   UNK     0      34.560   5.343  58.724  0.00  0.00    -0.776 OA
HETATM   44  H   UNK     0      34.314   4.361  58.691  0.00  0.00     0.167 HD
ENDBRANCH  41  43
ENDBRANCH  40  41
ENDBRANCH  39  40
ENDBRANCH  27  39
BRANCH  11  45
HETATM   45  C   UNK     0      39.311  13.454  65.800  0.00  0.00     0.051 C 
BRANCH  45  46
HETATM   46  C   UNK     0      38.989  12.192  66.513  0.00  0.00     0.114 C 
BRANCH  46  47
HETATM   47  C   UNK     0      40.278  11.611  66.986  0.00  0.00     0.139 C 
HETATM   48  O   UNK     0      41.316  11.895  66.373  0.00  0.00    -0.650 OA
BRANCH  47  49
HETATM   49  O   UNK     0      40.315  10.779  68.077  0.00  0.00    -0.776 OA
HETATM   50  H   UNK     0      39.466  10.512  68.588  0.00  0.00     0.167 HD
ENDBRANCH  47  49
ENDBRANCH  46  47
ENDBRANCH  45  46
ENDBRANCH  11  45
BRANCH  18  51
HETATM   51  C   UNK     0      37.339   7.210  63.373  0.00  0.00     0.051 C 
BRANCH  51  52
HETATM   52  C   UNK     0      35.944   7.154  63.977  0.00  0.00     0.114 C 
BRANCH  52  53
HETATM   53  C   UNK     0      35.984   6.928  65.434  0.00  0.00     0.139 C 
HETATM   54  O   UNK     0      37.065   6.690  65.996  0.00  0.00    -0.650 OA
BRANCH  53  55
HETATM   55  O   UNK     0      34.821   6.980  66.163  0.00  0.00    -0.776 OA
HETATM   56  H   UNK     0      34.272   6.201  66.443  0.00  0.00     0.167 HD
ENDBRANCH  53  55
ENDBRANCH  52  53
ENDBRANCH  51  52
ENDBRANCH  18  51
TORSDOF 16
ENDMDL
MODEL 10
REMARK VINA RESULT:      -9.1      2.429      3.089
REMARK  16 active torsions:
REMARK  status: ('A' for Active; 'I' for Inactive)
REMARK    1  A    between atoms: C_6  and  C_7 
REMARK    2  A    between atoms: C_7  and  C_8 
REMARK    3  A    between atoms: C_8  and  C_9 
REMARK    4  A    between atoms: C_9  and  O_11 
REMARK    5  A    between atoms: C_16  and  C_17 
REMARK    6  A    between atoms: C_17  and  C_18 
REMARK    7  A    between atoms: C_18  and  C_19 
REMARK    8  A    between atoms: C_19  and  O_21 
REMARK    9  A    between atoms: C_28  and  C_29 
REMARK   10  A    between atoms: C_29  and  C_30 
REMARK   11  A    between atoms: C_30  and  C_31 
REMARK   12  A    between atoms: C_31  and  O_33 
REMARK   13  A    between atoms: C_42  and  C_43 
REMARK   14  A    between atoms: C_43  and  C_44 
REMARK   15  A    between atoms: C_44  and  C_45 
REMARK   16  A    between atoms: C_45  and  O_47 
ROOT
HETATM    1  C   UNK     0      37.599   7.653  62.413  0.00  0.00     0.051 C 
HETATM    2  C   UNK     0      38.069   9.040  62.803  0.00  0.00    -0.031 A 
HETATM    3  C   UNK     0      37.905  10.244  62.137  0.00  0.00     0.021 A 
HETATM    4  N   UNK     0      38.520  11.225  62.841  0.00  0.00    -0.361 N 
HETATM    5  C   UNK     0      39.064  10.673  63.945  0.00  0.00     0.022 A 
HETATM    6  C   UNK     0      38.804   9.307  63.952  0.00  0.00    -0.027 A 
HETATM    7  C   UNK     0      39.767  11.332  65.091  0.00  0.00     0.115 C 
HETATM    8  C   UNK     0      39.157  12.620  65.614  0.00  0.00     0.021 A 
HETATM    9  N   UNK     0      37.861  12.953  65.711  0.00  0.00    -0.361 N 
HETATM   10  C   UNK     0      37.787  14.229  66.145  0.00  0.00     0.022 A 
HETATM   11  C   UNK     0      39.071  14.729  66.341  0.00  0.00    -0.027 A 
HETATM   12  C   UNK     0      39.939  13.721  66.009  0.00  0.00    -0.031 A 
HETATM   13  C   UNK     0      41.448  13.809  66.072  0.00  0.00     0.051 C 
HETATM   14  C   UNK     0      36.511  15.043  66.339  0.00  0.00     0.115 C 
HETATM   15  C   UNK     0      35.701  15.231  65.066  0.00  0.00     0.021 A 
HETATM   16  N   UNK     0      35.181  14.275  64.274  0.00  0.00    -0.361 N 
HETATM   17  C   UNK     0      34.600  14.848  63.218  0.00  0.00     0.022 A 
HETATM   18  C   UNK     0      34.740  16.245  63.332  0.00  0.00    -0.027 A 
HETATM   19  C   UNK     0      35.430  16.472  64.495  0.00  0.00    -0.031 A 
HETATM   20  C   UNK     0      35.766  17.856  65.020  0.00  0.00     0.051 C 
HETATM   21  C   UNK     0      33.941  14.219  62.011  0.00  0.00     0.115 C 
HETATM   22  C   UNK     0      34.510  12.914  61.507  0.00  0.00     0.022 A 
HETATM   23  N   UNK     0      35.795  12.554  61.403  0.00  0.00    -0.361 N 
HETATM   24  C   UNK     0      35.844  11.255  61.045  0.00  0.00     0.021 A 
HETATM   25  C   UNK     0      34.558  10.770  60.905  0.00  0.00    -0.031 A 
HETATM   26  C   UNK     0      34.101   9.389  60.480  0.00  0.00     0.051 C 
HETATM   27  C   UNK     0      33.686  11.813  61.195  0.00  0.00    -0.027 A 
HETATM   28  C   UNK     0      37.075  10.378  60.892  0.00  0.00     0.115 C 
HETATM   29  H   UNK     0      38.598  12.293  62.533  0.00  0.00     0.165 HD
HETATM   30  H   UNK     0      36.995  12.273  65.523  0.00  0.00     0.165 HD
HETATM   31  H   UNK     0      35.182  13.174  64.488  0.00  0.00     0.165 HD
HETATM   32  H   UNK     0      36.682  13.226  61.539  0.00  0.00     0.165 HD
ENDROOT
BRANCH   6  33
HETATM   33  C   UNK     0      39.197   8.249  64.952  0.00  0.00     0.051 C 
BRANCH  33  34
HETATM   34  C   UNK     0      38.178   8.158  66.063  0.00  0.00     0.114 C 
BRANCH  34  35
HETATM   35  C   UNK     0      37.536   6.815  65.972  0.00  0.00     0.139 C 
HETATM   36  O   UNK     0      38.239   5.766  66.064  0.00  0.00    -0.650 OA
BRANCH  35  37
HETATM   37  O   UNK     0      36.169   6.648  65.789  0.00  0.00    -0.776 OA
HETATM   38  H   UNK     0      35.497   7.308  66.147  0.00  0.00     0.167 HD
ENDBRANCH  35  37
ENDBRANCH  34  35
ENDBRANCH  33  34
ENDBRANCH   6  33
BRANCH  27  39
HETATM   39  C   UNK     0      32.208  11.690  61.081  0.00  0.00     0.051 C 
BRANCH  39  40
HETATM   40  C   UNK     0      31.571  12.098  59.830  0.00  0.00     0.114 C 
BRANCH  40  41
HETATM   41  C   UNK     0      31.268  11.156  58.776  0.00  0.00     0.139 C 
HETATM   42  O   UNK     0      30.157  10.631  58.627  0.00  0.00    -0.650 OA
BRANCH  41  43
HETATM   43  O   UNK     0      32.291  10.803  57.850  0.00  0.00    -0.776 OA
HETATM   44  H   UNK     0      32.991  11.520  57.705  0.00  0.00     0.167 HD
ENDBRANCH  41  43
ENDBRANCH  40  41
ENDBRANCH  39  40
ENDBRANCH  27  39
BRANCH  11  45
HETATM   45  C   UNK     0      39.487  16.093  66.822  0.00  0.00     0.051 C 
BRANCH  45  46
HETATM   46  C   UNK     0      39.614  17.105  65.742  0.00  0.00     0.114 C 
BRANCH  46  47
HETATM   47  C   UNK     0      39.566  18.448  66.387  0.00  0.00     0.139 C 
HETATM   48  O   UNK     0      40.230  18.635  67.416  0.00  0.00    -0.650 OA
BRANCH  47  49
HETATM   49  O   UNK     0      38.804  19.457  65.854  0.00  0.00    -0.776 OA
HETATM   50  H   UNK     0      37.800  19.545  66.053  0.00  0.00     0.167 HD
ENDBRANCH  47  49
ENDBRANCH  46  47
ENDBRANCH  45  46
ENDBRANCH  11  45
BRANCH  18  51
HETATM   51  C   UNK     0      34.225  17.307  62.395  0.00  0.00     0.051 C 
BRANCH  51  52
HETATM   52  C   UNK     0      32.979  17.885  63.049  0.00  0.00     0.114 C 
BRANCH  52  53
HETATM   53  C   UNK     0      31.896  18.104  62.071  0.00  0.00     0.139 C 
HETATM   54  O   UNK     0      30.866  17.413  62.119  0.00  0.00    -0.650 OA
BRANCH  53  55
HETATM   55  O   UNK     0      32.037  19.072  61.107  0.00  0.00    -0.776 OA
HETATM   56  H   UNK     0      31.341  19.355  60.457  0.00  0.00     0.167 HD
ENDBRANCH  53  55
ENDBRANCH  52  53
ENDBRANCH  51  52
ENDBRANCH  18  51
TORSDOF 16
ENDMDL
MODEL 11
REMARK VINA RESULT:      -9.1     31.135     33.630
REMARK  16 active torsions:
REMARK  status: ('A' for Active; 'I' for Inactive)
REMARK    1  A    between atoms: C_6  and  C_7 
REMARK    2  A    between atoms: C_7  and  C_8 
REMARK    3  A    between atoms: C_8  and  C_9 
REMARK    4  A    between atoms: C_9  and  O_11 
REMARK    5  A    between atoms: C_16  and  C_17 
REMARK    6  A    between atoms: C_17  and  C_18 
REMARK    7  A    between atoms: C_18  and  C_19 
REMARK    8  A    between atoms: C_19  and  O_21 
REMARK    9  A    between atoms: C_28  and  C_29 
REMARK   10  A    between atoms: C_29  and  C_30 
REMARK   11  A    between atoms: C_30  and  C_31 
REMARK   12  A    between atoms: C_31  and  O_33 
REMARK   13  A    between atoms: C_42  and  C_43 
REMARK   14  A    between atoms: C_43  and  C_44 
REMARK   15  A    between atoms: C_44  and  C_45 
REMARK   16  A    between atoms: C_45  and  O_47 
ROOT
HETATM    1  C   UNK     0      46.648  20.965  30.780  0.00  0.00     0.051 C 
HETATM    2  C   UNK     0      47.056  20.475  32.154  0.00  0.00    -0.031 A 
HETATM    3  C   UNK     0      46.484  19.488  32.942  0.00  0.00     0.021 A 
HETATM    4  N   UNK     0      47.163  19.408  34.111  0.00  0.00    -0.361 N 
HETATM    5  C   UNK     0      48.159  20.317  34.082  0.00  0.00     0.022 A 
HETATM    6  C   UNK     0      48.120  21.004  32.874  0.00  0.00    -0.027 A 
HETATM    7  C   UNK     0      49.247  20.569  35.080  0.00  0.00     0.115 C 
HETATM    8  C   UNK     0      49.913  19.346  35.686  0.00  0.00     0.021 A 
HETATM    9  N   UNK     0      50.186  18.168  35.104  0.00  0.00    -0.361 N 
HETATM   10  C   UNK     0      50.697  17.345  36.044  0.00  0.00     0.022 A 
HETATM   11  C   UNK     0      50.763  18.014  37.262  0.00  0.00    -0.027 A 
HETATM   12  C   UNK     0      50.271  19.276  37.044  0.00  0.00    -0.031 A 
HETATM   13  C   UNK     0      50.156  20.362  38.089  0.00  0.00     0.051 C 
HETATM   14  C   UNK     0      51.091  15.884  35.844  0.00  0.00     0.115 C 
HETATM   15  C   UNK     0      49.939  14.988  35.418  0.00  0.00     0.021 A 
HETATM   16  N   UNK     0      49.163  15.112  34.325  0.00  0.00    -0.361 N 
HETATM   17  C   UNK     0      48.219  14.168  34.349  0.00  0.00     0.022 A 
HETATM   18  C   UNK     0      48.395  13.386  35.507  0.00  0.00    -0.027 A 
HETATM   19  C   UNK     0      49.476  13.909  36.168  0.00  0.00    -0.031 A 
HETATM   20  C   UNK     0      50.034  13.337  37.458  0.00  0.00     0.051 C 
HETATM   21  C   UNK     0      47.068  13.921  33.400  0.00  0.00     0.115 C 
HETATM   22  C   UNK     0      46.424  15.127  32.756  0.00  0.00     0.022 A 
HETATM   23  N   UNK     0      46.144  16.314  33.310  0.00  0.00    -0.361 N 
HETATM   24  C   UNK     0      45.710  17.142  32.339  0.00  0.00     0.021 A 
HETATM   25  C   UNK     0      45.699  16.469  31.132  0.00  0.00    -0.031 A 
HETATM   26  C   UNK     0      45.256  16.961  29.770  0.00  0.00     0.051 C 
HETATM   27  C   UNK     0      46.152  15.177  31.374  0.00  0.00    -0.027 A 
HETATM   28  C   UNK     0      45.359  18.615  32.462  0.00  0.00     0.115 C 
HETATM   29  H   UNK     0      46.908  18.738  34.965  0.00  0.00     0.165 HD
HETATM   30  H   UNK     0      50.065  17.931  34.018  0.00  0.00     0.165 HD
HETATM   31  H   UNK     0      49.312  15.851  33.495  0.00  0.00     0.165 HD
HETATM   32  H   UNK     0      46.210  16.565  34.400  0.00  0.00     0.165 HD
ENDROOT
BRANCH   6  33
HETATM   33  C   UNK     0      49.003  22.112  32.358  0.00  0.00     0.051 C 
BRANCH  33  34
HETATM   34  C   UNK     0      50.299  21.555  31.818  0.00  0.00     0.114 C 
BRANCH  34  35
HETATM   35  C   UNK     0      51.412  22.236  32.540  0.00  0.00     0.139 C 
HETATM   36  O   UNK     0      51.163  23.014  33.507  0.00  0.00    -0.650 OA
BRANCH  35  37
HETATM   37  O   UNK     0      52.747  22.054  32.201  0.00  0.00    -0.776 OA
HETATM   38  H   UNK     0      53.315  22.805  31.844  0.00  0.00     0.167 HD
ENDBRANCH  35  37
ENDBRANCH  34  35
ENDBRANCH  33  34
ENDBRANCH   6  33
BRANCH  27  39
HETATM   39  C   UNK     0      46.213  14.129  30.319  0.00  0.00     0.051 C 
BRANCH  39  40
HETATM   40  C   UNK     0      45.121  13.159  30.241  0.00  0.00     0.114 C 
BRANCH  40  41
HETATM   41  C   UNK     0      45.344  11.736  30.370  0.00  0.00     0.139 C 
HETATM   42  O   UNK     0      45.700  11.012  29.431  0.00  0.00    -0.650 OA
BRANCH  41  43
HETATM   43  O   UNK     0      45.148  11.118  31.638  0.00  0.00    -0.776 OA
HETATM   44  H   UNK     0      44.398  11.519  32.188  0.00  0.00     0.167 HD
ENDBRANCH  41  43
ENDBRANCH  40  41
ENDBRANCH  39  40
ENDBRANCH  27  39
BRANCH  11  45
HETATM   45  C   UNK     0      51.267  17.509  38.587  0.00  0.00     0.051 C 
BRANCH  45  46
HETATM   46  C   UNK     0      52.745  17.381  38.665  0.00  0.00     0.114 C 
BRANCH  46  47
HETATM   47  C   UNK     0      53.063  15.924  38.670  0.00  0.00     0.139 C 
HETATM   48  O   UNK     0      53.969  15.513  37.932  0.00  0.00    -0.650 OA
BRANCH  47  49
HETATM   49  O   UNK     0      52.366  15.056  39.472  0.00  0.00    -0.776 OA
HETATM   50  H   UNK     0      51.595  14.481  39.113  0.00  0.00     0.167 HD
ENDBRANCH  47  49
ENDBRANCH  46  47
ENDBRANCH  45  46
ENDBRANCH  11  45
BRANCH  18  51
HETATM   51  C   UNK     0      47.589  12.192  35.950  0.00  0.00     0.051 C 
BRANCH  51  52
HETATM   52  C   UNK     0      48.381  10.963  35.527  0.00  0.00     0.114 C 
BRANCH  52  53
HETATM   53  C   UNK     0      47.549  10.007  34.771  0.00  0.00     0.139 C 
HETATM   54  O   UNK     0      47.629   8.791  35.009  0.00  0.00    -0.650 OA
BRANCH  53  55
HETATM   55  O   UNK     0      46.691  10.469  33.803  0.00  0.00    -0.776 OA
HETATM   56  H   UNK     0      45.833  10.942  33.962  0.00  0.00     0.167 HD
ENDBRANCH  53  55
ENDBRANCH  52  53
ENDBRANCH  51  52
ENDBRANCH  18  51
TORSDOF 16
ENDMDL
MODEL 12
REMARK VINA RESULT:      -9.1     33.521     35.979
REMARK  16 active torsions:
REMARK  status: ('A' for Active; 'I' for Inactive)
REMARK    1  A    between atoms: C_6  and  C_7 
REMARK    2  A    between atoms: C_7  and  C_8 
REMARK    3  A    between atoms: C_8  and  C_9 
REMARK    4  A    between atoms: C_9  and  O_11 
REMARK    5  A    between atoms: C_16  and  C_17 
REMARK    6  A    between atoms: C_17  and  C_18 
REMARK    7  A    between atoms: C_18  and  C_19 
REMARK    8  A    between atoms: C_19  and  O_21 
REMARK    9  A    between atoms: C_28  and  C_29 
REMARK   10  A    between atoms: C_29  and  C_30 
REMARK   11  A    between atoms: C_30  and  C_31 
REMARK   12  A    between atoms: C_31  and  O_33 
REMARK   13  A    between atoms: C_42  and  C_43 
REMARK   14  A    between atoms: C_43  and  C_44 
REMARK   15  A    between atoms: C_44  and  C_45 
REMARK   16  A    between atoms: C_45  and  O_47 
ROOT
HETATM    1  C   UNK     0      44.318  13.222  31.120  0.00  0.00     0.051 C 
HETATM    2  C   UNK     0      43.955  14.673  31.359  0.00  0.00    -0.031 A 
HETATM    3  C   UNK     0      44.431  15.553  32.318  0.00  0.00     0.021 A 
HETATM    4  N   UNK     0      43.800  16.743  32.176  0.00  0.00    -0.361 N 
HETATM    5  C   UNK     0      42.940  16.644  31.142  0.00  0.00     0.022 A 
HETATM    6  C   UNK     0      43.009  15.361  30.610  0.00  0.00    -0.027 A 
HETATM    7  C   UNK     0      42.076  17.695  30.518  0.00  0.00     0.115 C 
HETATM    8  C   UNK     0      42.706  19.061  30.311  0.00  0.00     0.021 A 
HETATM    9  N   UNK     0      43.974  19.356  29.984  0.00  0.00    -0.361 N 
HETATM   10  C   UNK     0      44.110  20.699  29.999  0.00  0.00     0.022 A 
HETATM   11  C   UNK     0      42.893  21.285  30.337  0.00  0.00    -0.027 A 
HETATM   12  C   UNK     0      42.005  20.259  30.534  0.00  0.00    -0.031 A 
HETATM   13  C   UNK     0      40.550  20.423  30.914  0.00  0.00     0.051 C 
HETATM   14  C   UNK     0      45.398  21.478  29.750  0.00  0.00     0.115 C 
HETATM   15  C   UNK     0      46.507  21.168  30.743  0.00  0.00     0.021 A 
HETATM   16  N   UNK     0      47.070  19.972  30.998  0.00  0.00    -0.361 N 
HETATM   17  C   UNK     0      47.957  20.107  31.986  0.00  0.00     0.022 A 
HETATM   18  C   UNK     0      47.980  21.458  32.388  0.00  0.00    -0.027 A 
HETATM   19  C   UNK     0      47.068  22.111  31.601  0.00  0.00    -0.031 A 
HETATM   20  C   UNK     0      46.801  23.603  31.680  0.00  0.00     0.051 C 
HETATM   21  C   UNK     0      48.798  19.064  32.688  0.00  0.00     0.115 C 
HETATM   22  C   UNK     0      48.200  17.688  32.861  0.00  0.00     0.022 A 
HETATM   23  N   UNK     0      46.940  17.364  33.182  0.00  0.00    -0.361 N 
HETATM   24  C   UNK     0      46.808  16.026  33.085  0.00  0.00     0.021 A 
HETATM   25  C   UNK     0      48.015  15.473  32.701  0.00  0.00    -0.031 A 
HETATM   26  C   UNK     0      48.375  14.016  32.499  0.00  0.00     0.051 C 
HETATM   27  C   UNK     0      48.921  16.517  32.552  0.00  0.00    -0.027 A 
HETATM   28  C   UNK     0      45.545  15.201  33.262  0.00  0.00     0.115 C 
HETATM   29  H   UNK     0      43.939  17.633  32.833  0.00  0.00     0.165 HD
HETATM   30  H   UNK     0      44.763  18.620  29.693  0.00  0.00     0.165 HD
HETATM   31  H   UNK     0      46.873  19.021  30.437  0.00  0.00     0.165 HD
HETATM   32  H   UNK     0      46.143  18.075  33.523  0.00  0.00     0.165 HD
ENDROOT
BRANCH   6  33
HETATM   33  C   UNK     0      42.252  14.746  29.459  0.00  0.00     0.051 C 
BRANCH  33  34
HETATM   34  C   UNK     0      43.165  14.522  28.277  0.00  0.00     0.114 C 
BRANCH  34  35
HETATM   35  C   UNK     0      42.683  15.397  27.169  0.00  0.00     0.139 C 
HETATM   36  O   UNK     0      41.592  16.027  27.284  0.00  0.00    -0.650 OA
BRANCH  35  37
HETATM   37  O   UNK     0      43.390  15.564  25.985  0.00  0.00    -0.776 OA
HETATM   38  H   UNK     0      43.879  16.418  25.770  0.00  0.00     0.167 HD
ENDBRANCH  35  37
ENDBRANCH  34  35
ENDBRANCH  33  34
ENDBRANCH   6  33
BRANCH  27  39
HETATM   39  C   UNK     0      50.355  16.304  32.213  0.00  0.00     0.051 C 
BRANCH  39  40
HETATM   40  C   UNK     0      50.732  16.241  30.801  0.00  0.00     0.114 C 
BRANCH  40  41
HETATM   41  C   UNK     0      50.312  17.241  29.846  0.00  0.00     0.139 C 
HETATM   42  O   UNK     0      50.609  18.440  29.936  0.00  0.00    -0.650 OA
BRANCH  41  43
HETATM   43  O   UNK     0      49.513  16.845  28.736  0.00  0.00    -0.776 OA
HETATM   44  H   UNK     0      49.793  15.970  28.310  0.00  0.00     0.167 HD
ENDBRANCH  41  43
ENDBRANCH  40  41
ENDBRANCH  39  40
ENDBRANCH  27  39
BRANCH  11  45
HETATM   45  C   UNK     0      42.557  22.746  30.470  0.00  0.00     0.051 C 
BRANCH  45  46
HETATM   46  C   UNK     0      43.075  23.376  31.712  0.00  0.00     0.114 C 
BRANCH  46  47
HETATM   47  C   UNK     0      42.923  24.851  31.555  0.00  0.00     0.139 C 
HETATM   48  O   UNK     0      43.942  25.556  31.568  0.00  0.00    -0.650 OA
BRANCH  47  49
HETATM   49  O   UNK     0      41.683  25.417  31.402  0.00  0.00    -0.776 OA
HETATM   50  H   UNK     0      41.539  26.433  31.443  0.00  0.00     0.167 HD
ENDBRANCH  47  49
ENDBRANCH  46  47
ENDBRANCH  45  46
ENDBRANCH  11  45
BRANCH  18  51
HETATM   51  C   UNK     0      48.839  22.094  33.450  0.00  0.00     0.051 C 
BRANCH  51  52
HETATM   52  C   UNK     0      49.893  22.907  32.714  0.00  0.00     0.114 C 
BRANCH  52  53
HETATM   53  C   UNK     0      51.147  22.149  32.536  0.00  0.00     0.139 C 
HETATM   54  O   UNK     0      51.352  21.524  31.483  0.00  0.00    -0.650 OA
BRANCH  53  55
HETATM   55  O   UNK     0      52.082  22.136  33.543  0.00  0.00    -0.776 OA
HETATM   56  H   UNK     0      51.979  21.701  34.429  0.00  0.00     0.167 HD
ENDBRANCH  53  55
ENDBRANCH  52  53
ENDBRANCH  51  52
ENDBRANCH  18  51
TORSDOF 16
ENDMDL
MODEL 13
REMARK VINA RESULT:      -9.1      2.881      7.167
REMARK  16 active torsions:
REMARK  status: ('A' for Active; 'I' for Inactive)
REMARK    1  A    between atoms: C_6  and  C_7 
REMARK    2  A    between atoms: C_7  and  C_8 
REMARK    3  A    between atoms: C_8  and  C_9 
REMARK    4  A    between atoms: C_9  and  O_11 
REMARK    5  A    between atoms: C_16  and  C_17 
REMARK    6  A    between atoms: C_17  and  C_18 
REMARK    7  A    between atoms: C_18  and  C_19 
REMARK    8  A    between atoms: C_19  and  O_21 
REMARK    9  A    between atoms: C_28  and  C_29 
REMARK   10  A    between atoms: C_29  and  C_30 
REMARK   11  A    between atoms: C_30  and  C_31 
REMARK   12  A    between atoms: C_31  and  O_33 
REMARK   13  A    between atoms: C_42  and  C_43 
REMARK   14  A    between atoms: C_43  and  C_44 
REMARK   15  A    between atoms: C_44  and  C_45 
REMARK   16  A    between atoms: C_45  and  O_47 
ROOT
HETATM    1  C   UNK     0      40.334  14.207  66.316  0.00  0.00     0.051 C 
HETATM    2  C   UNK     0      39.261  14.605  65.322  0.00  0.00    -0.031 A 
HETATM    3  C   UNK     0      39.059  14.165  64.024  0.00  0.00     0.021 A 
HETATM    4  N   UNK     0      37.994  14.816  63.498  0.00  0.00    -0.361 N 
HETATM    5  C   UNK     0      37.509  15.655  64.436  0.00  0.00     0.022 A 
HETATM    6  C   UNK     0      38.280  15.550  65.589  0.00  0.00    -0.027 A 
HETATM    7  C   UNK     0      36.294  16.528  64.396  0.00  0.00     0.115 C 
HETATM    8  C   UNK     0      35.039  15.922  63.793  0.00  0.00     0.021 A 
HETATM    9  N   UNK     0      34.603  14.655  63.868  0.00  0.00    -0.361 N 
HETATM   10  C   UNK     0      33.494  14.547  63.106  0.00  0.00     0.022 A 
HETATM   11  C   UNK     0      33.201  15.781  62.533  0.00  0.00    -0.027 A 
HETATM   12  C   UNK     0      34.170  16.652  62.962  0.00  0.00    -0.031 A 
HETATM   13  C   UNK     0      34.254  18.116  62.594  0.00  0.00     0.051 C 
HETATM   14  C   UNK     0      32.699  13.270  62.847  0.00  0.00     0.115 C 
HETATM   15  C   UNK     0      33.501  12.174  62.164  0.00  0.00     0.021 A 
HETATM   16  N   UNK     0      34.633  11.591  62.600  0.00  0.00    -0.361 N 
HETATM   17  C   UNK     0      35.064  10.726  61.679  0.00  0.00     0.022 A 
HETATM   18  C   UNK     0      34.163  10.738  60.595  0.00  0.00    -0.027 A 
HETATM   19  C   UNK     0      33.188  11.648  60.912  0.00  0.00    -0.031 A 
HETATM   20  C   UNK     0      31.993  11.947  60.025  0.00  0.00     0.051 C 
HETATM   21  C   UNK     0      36.315   9.878  61.652  0.00  0.00     0.115 C 
HETATM   22  C   UNK     0      37.560  10.451  62.287  0.00  0.00     0.022 A 
HETATM   23  N   UNK     0      38.015  11.709  62.233  0.00  0.00    -0.361 N 
HETATM   24  C   UNK     0      39.075  11.812  63.060  0.00  0.00     0.021 A 
HETATM   25  C   UNK     0      39.314  10.587  63.653  0.00  0.00    -0.031 A 
HETATM   26  C   UNK     0      40.412  10.194  64.620  0.00  0.00     0.051 C 
HETATM   27  C   UNK     0      38.358   9.700  63.174  0.00  0.00    -0.027 A 
HETATM   28  C   UNK     0      39.868  13.061  63.404  0.00  0.00     0.115 C 
HETATM   29  H   UNK     0      37.618  14.708  62.455  0.00  0.00     0.165 HD
HETATM   30  H   UNK     0      35.049  13.846  64.497  0.00  0.00     0.165 HD
HETATM   31  H   UNK     0      35.114  11.759  63.598  0.00  0.00     0.165 HD
HETATM   32  H   UNK     0      37.619  12.527  61.576  0.00  0.00     0.165 HD
ENDROOT
BRANCH   6  33
HETATM   33  C   UNK     0      38.158  16.273  66.907  0.00  0.00     0.051 C 
BRANCH  33  34
HETATM   34  C   UNK     0      38.486  17.738  66.746  0.00  0.00     0.114 C 
BRANCH  34  35
HETATM   35  C   UNK     0      39.972  17.862  66.713  0.00  0.00     0.139 C 
HETATM   36  O   UNK     0      40.660  17.548  67.727  0.00  0.00    -0.650 OA
BRANCH  35  37
HETATM   37  O   UNK     0      40.661  18.315  65.594  0.00  0.00    -0.776 OA
HETATM   38  H   UNK     0      40.230  18.367  64.685  0.00  0.00     0.167 HD
ENDBRANCH  35  37
ENDBRANCH  34  35
ENDBRANCH  33  34
ENDBRANCH   6  33
BRANCH  27  39
HETATM   39  C   UNK     0      38.337   8.256  63.536  0.00  0.00     0.051 C 
BRANCH  39  40
HETATM   40  C   UNK     0      37.479   7.829  64.640  0.00  0.00     0.114 C 
BRANCH  40  41
HETATM   41  C   UNK     0      38.015   7.280  65.865  0.00  0.00     0.139 C 
HETATM   42  O   UNK     0      39.064   7.676  66.390  0.00  0.00    -0.650 OA
BRANCH  41  43
HETATM   43  O   UNK     0      37.312   6.226  66.515  0.00  0.00    -0.776 OA
HETATM   44  H   UNK     0      37.281   6.303  67.525  0.00  0.00     0.167 HD
ENDBRANCH  41  43
ENDBRANCH  40  41
ENDBRANCH  39  40
ENDBRANCH  27  39
BRANCH  11  45
HETATM   45  C   UNK     0      32.062  16.149  61.621  0.00  0.00     0.051 C 
BRANCH  45  46
HETATM   46  C   UNK     0      32.288  15.793  60.196  0.00  0.00     0.114 C 
BRANCH  46  47
HETATM   47  C   UNK     0      31.353  16.621  59.381  0.00  0.00     0.139 C 
HETATM   48  O   UNK     0      31.543  16.700  58.159  0.00  0.00    -0.650 OA
BRANCH  47  49
HETATM   49  O   UNK     0      30.305  17.283  59.970  0.00  0.00    -0.776 OA
HETATM   50  H   UNK     0      29.327  17.054  59.757  0.00  0.00     0.167 HD
ENDBRANCH  47  49
ENDBRANCH  46  47
ENDBRANCH  45  46
ENDBRANCH  11  45
BRANCH  18  51
HETATM   51  C   UNK     0      34.217   9.912  59.336  0.00  0.00     0.051 C 
BRANCH  51  52
HETATM   52  C   UNK     0      33.505   8.605  59.653  0.00  0.00     0.114 C 
BRANCH  52  53
HETATM   53  C   UNK     0      33.067   7.907  58.429  0.00  0.00     0.139 C 
HETATM   54  O   UNK     0      32.662   8.559  57.453  0.00  0.00    -0.650 OA
BRANCH  53  55
HETATM   55  O   UNK     0      33.106   6.535  58.378  0.00  0.00    -0.776 OA
HETATM   56  H   UNK     0      33.688   5.989  57.788  0.00  0.00     0.167 HD
ENDBRANCH  53  55
ENDBRANCH  52  53
ENDBRANCH  51  52
ENDBRANCH  18  51
TORSDOF 16
ENDMDL
MODEL 14
REMARK VINA RESULT:      -9.0     30.978     33.601
REMARK  16 active torsions:
REMARK  status: ('A' for Active; 'I' for Inactive)
REMARK    1  A    between atoms: C_6  and  C_7 
REMARK    2  A    between atoms: C_7  and  C_8 
REMARK    3  A    between atoms: C_8  and  C_9 
REMARK    4  A    between atoms: C_9  and  O_11 
REMARK    5  A    between atoms: C_16  and  C_17 
REMARK    6  A    between atoms: C_17  and  C_18 
REMARK    7  A    between atoms: C_18  and  C_19 
REMARK    8  A    between atoms: C_19  and  O_21 
REMARK    9  A    between atoms: C_28  and  C_29 
REMARK   10  A    between atoms: C_29  and  C_30 
REMARK   11  A    between atoms: C_30  and  C_31 
REMARK   12  A    between atoms: C_31  and  O_33 
REMARK   13  A    between atoms: C_42  and  C_43 
REMARK   14  A    between atoms: C_43  and  C_44 
REMARK   15  A    between atoms: C_44  and  C_45 
REMARK   16  A    between atoms: C_45  and  O_47 
ROOT
HETATM    1  C   UNK     0      45.616  19.501  31.254  0.00  0.00     0.051 C 
HETATM    2  C   UNK     0      46.277  19.034  32.534  0.00  0.00    -0.031 A 
HETATM    3  C   UNK     0      45.871  18.056  33.428  0.00  0.00     0.021 A 
HETATM    4  N   UNK     0      46.756  17.997  34.451  0.00  0.00    -0.361 N 
HETATM    5  C   UNK     0      47.723  18.911  34.224  0.00  0.00     0.022 A 
HETATM    6  C   UNK     0      47.453  19.579  33.035  0.00  0.00    -0.027 A 
HETATM    7  C   UNK     0      48.976  19.183  34.997  0.00  0.00     0.115 C 
HETATM    8  C   UNK     0      49.753  17.973  35.484  0.00  0.00     0.021 A 
HETATM    9  N   UNK     0      49.921  16.788  34.878  0.00  0.00    -0.361 N 
HETATM   10  C   UNK     0      50.605  15.981  35.717  0.00  0.00     0.022 A 
HETATM   11  C   UNK     0      50.893  16.669  36.892  0.00  0.00    -0.027 A 
HETATM   12  C   UNK     0      50.359  17.924  36.752  0.00  0.00    -0.031 A 
HETATM   13  C   UNK     0      50.433  19.026  37.785  0.00  0.00     0.051 C 
HETATM   14  C   UNK     0      50.966  14.519  35.468  0.00  0.00     0.115 C 
HETATM   15  C   UNK     0      49.762  13.611  35.277  0.00  0.00     0.021 A 
HETATM   16  N   UNK     0      48.794  13.715  34.347  0.00  0.00    -0.361 N 
HETATM   17  C   UNK     0      47.879  12.767  34.560  0.00  0.00     0.022 A 
HETATM   18  C   UNK     0      48.274  12.003  35.676  0.00  0.00    -0.027 A 
HETATM   19  C   UNK     0      49.455  12.541  36.115  0.00  0.00    -0.031 A 
HETATM   20  C   UNK     0      50.249  11.992  37.286  0.00  0.00     0.051 C 
HETATM   21  C   UNK     0      46.572  12.500  33.847  0.00  0.00     0.115 C 
HETATM   22  C   UNK     0      45.810  13.692  33.318  0.00  0.00     0.022 A 
HETATM   23  N   UNK     0      45.630  14.886  33.898  0.00  0.00    -0.361 N 
HETATM   24  C   UNK     0      45.015  15.698  33.014  0.00  0.00     0.021 A 
HETATM   25  C   UNK     0      44.785  15.006  31.840  0.00  0.00    -0.031 A 
HETATM   26  C   UNK     0      44.091  15.476  30.578  0.00  0.00     0.051 C 
HETATM   27  C   UNK     0      45.285  13.721  32.010  0.00  0.00    -0.027 A 
HETATM   28  C   UNK     0      44.683  17.170  33.180  0.00  0.00     0.115 C 
HETATM   29  H   UNK     0      46.671  17.339  35.347  0.00  0.00     0.165 HD
HETATM   30  H   UNK     0      49.602  16.533  33.838  0.00  0.00     0.165 HD
HETATM   31  H   UNK     0      48.780  14.442  33.494  0.00  0.00     0.165 HD
HETATM   32  H   UNK     0      45.896  15.154  34.953  0.00  0.00     0.165 HD
ENDROOT
BRANCH   6  33
HETATM   33  C   UNK     0      48.215  20.683  32.347  0.00  0.00     0.051 C 
BRANCH  33  34
HETATM   34  C   UNK     0      49.247  20.114  31.403  0.00  0.00     0.114 C 
BRANCH  34  35
HETATM   35  C   UNK     0      50.443  21.002  31.460  0.00  0.00     0.139 C 
HETATM   36  O   UNK     0      50.709  21.645  32.517  0.00  0.00    -0.650 OA
BRANCH  35  37
HETATM   37  O   UNK     0      51.308  21.164  30.384  0.00  0.00    -0.776 OA
HETATM   38  H   UNK     0      50.991  21.499  29.489  0.00  0.00     0.167 HD
ENDBRANCH  35  37
ENDBRANCH  34  35
ENDBRANCH  33  34
ENDBRANCH   6  33
BRANCH  27  39
HETATM   39  C   UNK     0      45.155  12.657  30.977  0.00  0.00     0.051 C 
BRANCH  39  40
HETATM   40  C   UNK     0      46.227  12.510  29.994  0.00  0.00     0.114 C 
BRANCH  40  41
HETATM   41  C   UNK     0      47.614  12.371  30.380  0.00  0.00     0.139 C 
HETATM   42  O   UNK     0      48.097  11.321  30.825  0.00  0.00    -0.650 OA
BRANCH  41  43
HETATM   43  O   UNK     0      48.484  13.490  30.248  0.00  0.00    -0.776 OA
HETATM   44  H   UNK     0      48.072  14.375  30.520  0.00  0.00     0.167 HD
ENDBRANCH  41  43
ENDBRANCH  40  41
ENDBRANCH  39  40
ENDBRANCH  27  39
BRANCH  11  45
HETATM   45  C   UNK     0      51.640  16.186  38.107  0.00  0.00     0.051 C 
BRANCH  45  46
HETATM   46  C   UNK     0      53.113  16.351  38.017  0.00  0.00     0.114 C 
BRANCH  46  47
HETATM   47  C   UNK     0      53.704  14.987  37.898  0.00  0.00     0.139 C 
HETATM   48  O   UNK     0      53.102  14.034  38.413  0.00  0.00    -0.650 OA
BRANCH  47  49
HETATM   49  O   UNK     0      54.888  14.790  37.233  0.00  0.00    -0.776 OA
HETATM   50  H   UNK     0      55.258  15.475  36.564  0.00  0.00     0.167 HD
ENDBRANCH  47  49
ENDBRANCH  46  47
ENDBRANCH  45  46
ENDBRANCH  11  45
BRANCH  18  51
HETATM   51  C   UNK     0      47.574  10.812  36.278  0.00  0.00     0.051 C 
BRANCH  51  52
HETATM   52  C   UNK     0      48.332   9.584  35.795  0.00  0.00     0.114 C 
BRANCH  52  53
HETATM   53  C   UNK     0      47.672   8.950  34.638  0.00  0.00     0.139 C 
HETATM   54  O   UNK     0      47.959   9.309  33.485  0.00  0.00    -0.650 OA
BRANCH  53  55
HETATM   55  O   UNK     0      46.737   7.965  34.845  0.00  0.00    -0.776 OA
HETATM   56  H   UNK     0      46.912   7.064  35.223  0.00  0.00     0.167 HD
ENDBRANCH  53  55
ENDBRANCH  52  53
ENDBRANCH  51  52
ENDBRANCH  18  51
TORSDOF 16
ENDMDL
MODEL 15
REMARK VINA RESULT:      -9.0     30.779     33.916
REMARK  16 active torsions:
REMARK  status: ('A' for Active; 'I' for Inactive)
REMARK    1  A    between atoms: C_6  and  C_7 
REMARK    2  A    between atoms: C_7  and  C_8 
REMARK    3  A    between atoms: C_8  and  C_9 
REMARK    4  A    between atoms: C_9  and  O_11 
REMARK    5  A    between atoms: C_16  and  C_17 
REMARK    6  A    between atoms: C_17  and  C_18 
REMARK    7  A    between atoms: C_18  and  C_19 
REMARK    8  A    between atoms: C_19  and  O_21 
REMARK    9  A    between atoms: C_28  and  C_29 
REMARK   10  A    between atoms: C_29  and  C_30 
REMARK   11  A    between atoms: C_30  and  C_31 
REMARK   12  A    between atoms: C_31  and  O_33 
REMARK   13  A    between atoms: C_42  and  C_43 
REMARK   14  A    between atoms: C_43  and  C_44 
REMARK   15  A    between atoms: C_44  and  C_45 
REMARK   16  A    between atoms: C_45  and  O_47 
ROOT
HETATM    1  C   UNK     0      45.962  19.359  30.000  0.00  0.00     0.051 C 
HETATM    2  C   UNK     0      46.305  17.921  30.333  0.00  0.00    -0.031 A 
HETATM    3  C   UNK     0      47.528  17.364  30.672  0.00  0.00     0.021 A 
HETATM    4  N   UNK     0      47.371  16.032  30.856  0.00  0.00    -0.361 N 
HETATM    5  C   UNK     0      46.072  15.729  30.651  0.00  0.00     0.022 A 
HETATM    6  C   UNK     0      45.377  16.887  30.319  0.00  0.00    -0.027 A 
HETATM    7  C   UNK     0      45.362  14.422  30.818  0.00  0.00     0.115 C 
HETATM    8  C   UNK     0      45.716  13.607  32.049  0.00  0.00     0.021 A 
HETATM    9  N   UNK     0      46.022  14.042  33.281  0.00  0.00    -0.361 N 
HETATM   10  C   UNK     0      46.358  12.972  34.033  0.00  0.00     0.022 A 
HETATM   11  C   UNK     0      46.256  11.815  33.267  0.00  0.00    -0.027 A 
HETATM   12  C   UNK     0      45.852  12.207  32.016  0.00  0.00    -0.031 A 
HETATM   13  C   UNK     0      45.604  11.281  30.847  0.00  0.00     0.051 C 
HETATM   14  C   UNK     0      46.837  13.003  35.481  0.00  0.00     0.115 C 
HETATM   15  C   UNK     0      48.124  13.787  35.688  0.00  0.00     0.021 A 
HETATM   16  N   UNK     0      48.352  15.082  35.399  0.00  0.00    -0.361 N 
HETATM   17  C   UNK     0      49.628  15.371  35.662  0.00  0.00     0.022 A 
HETATM   18  C   UNK     0      50.260  14.212  36.155  0.00  0.00    -0.027 A 
HETATM   19  C   UNK     0      49.306  13.227  36.167  0.00  0.00    -0.031 A 
HETATM   20  C   UNK     0      49.557  11.815  36.665  0.00  0.00     0.051 C 
HETATM   21  C   UNK     0      50.398  16.654  35.446  0.00  0.00     0.115 C 
HETATM   22  C   UNK     0      50.027  17.498  34.249  0.00  0.00     0.022 A 
HETATM   23  N   UNK     0      49.713  17.091  33.012  0.00  0.00    -0.361 N 
HETATM   24  C   UNK     0      49.307  18.164  32.303  0.00  0.00     0.021 A 
HETATM   25  C   UNK     0      49.370  19.290  33.101  0.00  0.00    -0.031 A 
HETATM   26  C   UNK     0      49.057  20.729  32.744  0.00  0.00     0.051 C 
HETATM   27  C   UNK     0      49.828  18.889  34.350  0.00  0.00    -0.027 A 
HETATM   28  C   UNK     0      48.766  18.190  30.885  0.00  0.00     0.115 C 
HETATM   29  H   UNK     0      48.186  15.309  31.091  0.00  0.00     0.165 HD
HETATM   30  H   UNK     0      45.954  15.099  33.638  0.00  0.00     0.165 HD
HETATM   31  H   UNK     0      47.585  15.820  35.047  0.00  0.00     0.165 HD
HETATM   32  H   UNK     0      49.817  16.048  32.614  0.00  0.00     0.165 HD
ENDROOT
BRANCH   6  33
HETATM   33  C   UNK     0      43.919  17.083  29.992  0.00  0.00     0.051 C 
BRANCH  33  34
HETATM   34  C   UNK     0      43.201  17.762  31.134  0.00  0.00     0.114 C 
BRANCH  34  35
HETATM   35  C   UNK     0      43.039  16.754  32.222  0.00  0.00     0.139 C 
HETATM   36  O   UNK     0      42.270  15.762  32.061  0.00  0.00    -0.650 OA
BRANCH  35  37
HETATM   37  O   UNK     0      43.708  16.847  33.435  0.00  0.00    -0.776 OA
HETATM   38  H   UNK     0      43.468  16.269  34.224  0.00  0.00     0.167 HD
ENDBRANCH  35  37
ENDBRANCH  34  35
ENDBRANCH  33  34
ENDBRANCH   6  33
BRANCH  27  39
HETATM   39  C   UNK     0      50.094  19.844  35.461  0.00  0.00     0.051 C 
BRANCH  39  40
HETATM   40  C   UNK     0      49.191  19.839  36.611  0.00  0.00     0.114 C 
BRANCH  40  41
HETATM   41  C   UNK     0      49.677  19.820  37.973  0.00  0.00     0.139 C 
HETATM   42  O   UNK     0      49.596  20.787  38.741  0.00  0.00    -0.650 OA
BRANCH  41  43
HETATM   43  O   UNK     0      50.286  18.634  38.472  0.00  0.00    -0.776 OA
HETATM   44  H   UNK     0      51.127  18.791  39.015  0.00  0.00     0.167 HD
ENDBRANCH  41  43
ENDBRANCH  40  41
ENDBRANCH  39  40
ENDBRANCH  27  39
BRANCH  11  45
HETATM   45  C   UNK     0      46.521  10.390  33.674  0.00  0.00     0.051 C 
BRANCH  45  46
HETATM   46  C   UNK     0      47.954  10.084  33.913  0.00  0.00     0.114 C 
BRANCH  46  47
HETATM   47  C   UNK     0      48.028   8.686  34.425  0.00  0.00     0.139 C 
HETATM   48  O   UNK     0      49.143   8.166  34.569  0.00  0.00    -0.650 OA
BRANCH  47  49
HETATM   49  O   UNK     0      46.886   7.988  34.728  0.00  0.00    -0.776 OA
HETATM   50  H   UNK     0      46.494   7.970  35.677  0.00  0.00     0.167 HD
ENDBRANCH  47  49
ENDBRANCH  46  47
ENDBRANCH  45  46
ENDBRANCH  11  45
BRANCH  18  51
HETATM   51  C   UNK     0      51.688  14.057  36.609  0.00  0.00     0.051 C 
BRANCH  51  52
HETATM   52  C   UNK     0      51.667  14.170  38.126  0.00  0.00     0.114 C 
BRANCH  52  53
HETATM   53  C   UNK     0      51.681  15.577  38.572  0.00  0.00     0.139 C 
HETATM   54  O   UNK     0      52.563  16.349  38.166  0.00  0.00    -0.650 OA
BRANCH  53  55
HETATM   55  O   UNK     0      50.715  16.024  39.441  0.00  0.00    -0.776 OA
HETATM   56  H   UNK     0      49.910  15.519  39.730  0.00  0.00     0.167 HD
ENDBRANCH  53  55
ENDBRANCH  52  53
ENDBRANCH  51  52
ENDBRANCH  18  51
TORSDOF 16
ENDMDL
MODEL 16
REMARK VINA RESULT:      -9.0     31.576     34.726
REMARK  16 active torsions:
REMARK  status: ('A' for Active; 'I' for Inactive)
REMARK    1  A    between atoms: C_6  and  C_7 
REMARK    2  A    between atoms: C_7  and  C_8 
REMARK    3  A    between atoms: C_8  and  C_9 
REMARK    4  A    between atoms: C_9  and  O_11 
REMARK    5  A    between atoms: C_16  and  C_17 
REMARK    6  A    between atoms: C_17  and  C_18 
REMARK    7  A    between atoms: C_18  and  C_19 
REMARK    8  A    between atoms: C_19  and  O_21 
REMARK    9  A    between atoms: C_28  and  C_29 
REMARK   10  A    between atoms: C_29  and  C_30 
REMARK   11  A    between atoms: C_30  and  C_31 
REMARK   12  A    between atoms: C_31  and  O_33 
REMARK   13  A    between atoms: C_42  and  C_43 
REMARK   14  A    between atoms: C_43  and  C_44 
REMARK   15  A    between atoms: C_44  and  C_45 
REMARK   16  A    between atoms: C_45  and  O_47 
ROOT
HETATM    1  C   UNK     0      43.113  18.673  29.381  0.00  0.00     0.051 C 
HETATM    2  C   UNK     0      43.985  17.476  29.704  0.00  0.00    -0.031 A 
HETATM    3  C   UNK     0      45.348  17.421  29.946  0.00  0.00     0.021 A 
HETATM    4  N   UNK     0      45.707  16.133  30.161  0.00  0.00    -0.361 N 
HETATM    5  C   UNK     0      44.600  15.367  30.069  0.00  0.00     0.022 A 
HETATM    6  C   UNK     0      43.505  16.175  29.781  0.00  0.00    -0.027 A 
HETATM    7  C   UNK     0      44.435  13.900  30.312  0.00  0.00     0.115 C 
HETATM    8  C   UNK     0      45.153  13.324  31.521  0.00  0.00     0.021 A 
HETATM    9  N   UNK     0      45.366  13.895  32.717  0.00  0.00    -0.361 N 
HETATM   10  C   UNK     0      46.126  13.056  33.452  0.00  0.00     0.022 A 
HETATM   11  C   UNK     0      46.403  11.910  32.712  0.00  0.00    -0.027 A 
HETATM   12  C   UNK     0      45.792  12.072  31.495  0.00  0.00    -0.031 A 
HETATM   13  C   UNK     0      45.819  11.070  30.363  0.00  0.00     0.051 C 
HETATM   14  C   UNK     0      46.664  13.322  34.855  0.00  0.00     0.115 C 
HETATM   15  C   UNK     0      47.583  14.531  34.942  0.00  0.00     0.021 A 
HETATM   16  N   UNK     0      47.296  15.805  34.618  0.00  0.00    -0.361 N 
HETATM   17  C   UNK     0      48.392  16.553  34.770  0.00  0.00     0.022 A 
HETATM   18  C   UNK     0      49.440  15.728  35.224  0.00  0.00    -0.027 A 
HETATM   19  C   UNK     0      48.920  14.464  35.329  0.00  0.00    -0.031 A 
HETATM   20  C   UNK     0      49.709  13.265  35.823  0.00  0.00     0.051 C 
HETATM   21  C   UNK     0      48.617  18.018  34.473  0.00  0.00     0.115 C 
HETATM   22  C   UNK     0      47.875  18.615  33.300  0.00  0.00     0.022 A 
HETATM   23  N   UNK     0      47.644  18.068  32.099  0.00  0.00    -0.361 N 
HETATM   24  C   UNK     0      46.821  18.886  31.413  0.00  0.00     0.021 A 
HETATM   25  C   UNK     0      46.522  19.991  32.187  0.00  0.00    -0.031 A 
HETATM   26  C   UNK     0      45.676  21.198  31.839  0.00  0.00     0.051 C 
HETATM   27  C   UNK     0      47.185  19.840  33.399  0.00  0.00    -0.027 A 
HETATM   28  C   UNK     0      46.206  18.651  30.044  0.00  0.00     0.115 C 
HETATM   29  H   UNK     0      46.746  15.769  30.336  0.00  0.00     0.165 HD
HETATM   30  H   UNK     0      44.939  14.868  33.063  0.00  0.00     0.165 HD
HETATM   31  H   UNK     0      46.288  16.196  34.322  0.00  0.00     0.165 HD
HETATM   32  H   UNK     0      48.096  17.120  31.708  0.00  0.00     0.165 HD
ENDROOT
BRANCH   6  33
HETATM   33  C   UNK     0      42.057  15.809  29.574  0.00  0.00     0.051 C 
BRANCH  33  34
HETATM   34  C   UNK     0      41.887  14.988  28.318  0.00  0.00     0.114 C 
BRANCH  34  35
HETATM   35  C   UNK     0      41.042  15.778  27.378  0.00  0.00     0.139 C 
HETATM   36  O   UNK     0      40.549  16.886  27.742  0.00  0.00    -0.650 OA
BRANCH  35  37
HETATM   37  O   UNK     0      40.760  15.354  26.085  0.00  0.00    -0.776 OA
HETATM   38  H   UNK     0      41.045  14.449  25.746  0.00  0.00     0.167 HD
ENDBRANCH  35  37
ENDBRANCH  34  35
ENDBRANCH  33  34
ENDBRANCH   6  33
BRANCH  27  39
HETATM   39  C   UNK     0      47.161  20.873  34.471  0.00  0.00     0.051 C 
BRANCH  39  40
HETATM   40  C   UNK     0      48.177  21.924  34.445  0.00  0.00     0.114 C 
BRANCH  40  41
HETATM   41  C   UNK     0      49.405  21.827  35.201  0.00  0.00     0.139 C 
HETATM   42  O   UNK     0      49.601  20.978  36.081  0.00  0.00    -0.650 OA
BRANCH  41  43
HETATM   43  O   UNK     0      50.456  22.750  34.934  0.00  0.00    -0.776 OA
HETATM   44  H   UNK     0      51.373  22.328  34.848  0.00  0.00     0.167 HD
ENDBRANCH  41  43
ENDBRANCH  40  41
ENDBRANCH  39  40
ENDBRANCH  27  39
BRANCH  11  45
HETATM   45  C   UNK     0      47.202  10.699  33.115  0.00  0.00     0.051 C 
BRANCH  45  46
HETATM   46  C   UNK     0      47.204  10.433  34.576  0.00  0.00     0.114 C 
BRANCH  46  47
HETATM   47  C   UNK     0      47.675   9.031  34.769  0.00  0.00     0.139 C 
HETATM   48  O   UNK     0      48.863   8.841  35.065  0.00  0.00    -0.650 OA
BRANCH  47  49
HETATM   49  O   UNK     0      46.814   7.974  34.620  0.00  0.00    -0.776 OA
HETATM   50  H   UNK     0      47.148   7.018  34.448  0.00  0.00     0.167 HD
ENDBRANCH  47  49
ENDBRANCH  46  47
ENDBRANCH  45  46
ENDBRANCH  11  45
BRANCH  18  51
HETATM   51  C   UNK     0      50.853  16.126  35.560  0.00  0.00     0.051 C 
BRANCH  51  52
HETATM   52  C   UNK     0      50.800  16.763  36.940  0.00  0.00     0.114 C 
BRANCH  52  53
HETATM   53  C   UNK     0      51.268  15.839  37.991  0.00  0.00     0.139 C 
HETATM   54  O   UNK     0      52.174  15.026  37.745  0.00  0.00    -0.650 OA
BRANCH  53  55
HETATM   55  O   UNK     0      50.694  15.881  39.238  0.00  0.00    -0.776 OA
HETATM   56  H   UNK     0      49.752  16.123  39.440  0.00  0.00     0.167 HD
ENDBRANCH  53  55
ENDBRANCH  52  53
ENDBRANCH  51  52
ENDBRANCH  18  51
TORSDOF 16
ENDMDL
MODEL 17
REMARK VINA RESULT:      -9.0     31.918     34.501
REMARK  16 active torsions:
REMARK  status: ('A' for Active; 'I' for Inactive)
REMARK    1  A    between atoms: C_6  and  C_7 
REMARK    2  A    between atoms: C_7  and  C_8 
REMARK    3  A    between atoms: C_8  and  C_9 
REMARK    4  A    between atoms: C_9  and  O_11 
REMARK    5  A    between atoms: C_16  and  C_17 
REMARK    6  A    between atoms: C_17  and  C_18 
REMARK    7  A    between atoms: C_18  and  C_19 
REMARK    8  A    between atoms: C_19  and  O_21 
REMARK    9  A    between atoms: C_28  and  C_29 
REMARK   10  A    between atoms: C_29  and  C_30 
REMARK   11  A    between atoms: C_30  and  C_31 
REMARK   12  A    between atoms: C_31  and  O_33 
REMARK   13  A    between atoms: C_42  and  C_43 
REMARK   14  A    between atoms: C_43  and  C_44 
REMARK   15  A    between atoms: C_44  and  C_45 
REMARK   16  A    between atoms: C_45  and  O_47 
ROOT
HETATM    1  C   UNK     0      49.954  19.339  35.429  0.00  0.00     0.051 C 
HETATM    2  C   UNK     0      49.239  18.008  35.311  0.00  0.00    -0.031 A 
HETATM    3  C   UNK     0      47.909  17.746  35.023  0.00  0.00     0.021 A 
HETATM    4  N   UNK     0      47.707  16.407  35.052  0.00  0.00    -0.361 N 
HETATM    5  C   UNK     0      48.881  15.810  35.344  0.00  0.00     0.022 A 
HETATM    6  C   UNK     0      49.861  16.783  35.515  0.00  0.00    -0.027 A 
HETATM    7  C   UNK     0      49.219  14.353  35.404  0.00  0.00     0.115 C 
HETATM    8  C   UNK     0      48.651  13.476  34.303  0.00  0.00     0.021 A 
HETATM    9  N   UNK     0      48.459  13.776  33.009  0.00  0.00    -0.361 N 
HETATM   10  C   UNK     0      47.845  12.728  32.422  0.00  0.00     0.022 A 
HETATM   11  C   UNK     0      47.644  11.720  33.361  0.00  0.00    -0.027 A 
HETATM   12  C   UNK     0      48.150  12.185  34.548  0.00  0.00    -0.031 A 
HETATM   13  C   UNK     0      48.155  11.422  35.854  0.00  0.00     0.051 C 
HETATM   14  C   UNK     0      47.377  12.654  30.971  0.00  0.00     0.115 C 
HETATM   15  C   UNK     0      46.342  13.705  30.604  0.00  0.00     0.021 A 
HETATM   16  N   UNK     0      46.466  15.043  30.682  0.00  0.00    -0.361 N 
HETATM   17  C   UNK     0      45.310  15.612  30.335  0.00  0.00     0.022 A 
HETATM   18  C   UNK     0      44.390  14.597  30.007  0.00  0.00    -0.027 A 
HETATM   19  C   UNK     0      45.049  13.407  30.179  0.00  0.00    -0.031 A 
HETATM   20  C   UNK     0      44.429  12.051  29.897  0.00  0.00     0.051 C 
HETATM   21  C   UNK     0      44.908  17.070  30.325  0.00  0.00     0.115 C 
HETATM   22  C   UNK     0      45.501  17.964  31.388  0.00  0.00     0.022 A 
HETATM   23  N   UNK     0      45.708  17.690  32.683  0.00  0.00    -0.361 N 
HETATM   24  C   UNK     0      46.390  18.716  33.230  0.00  0.00     0.021 A 
HETATM   25  C   UNK     0      46.619  19.680  32.267  0.00  0.00    -0.031 A 
HETATM   26  C   UNK     0      47.305  21.023  32.406  0.00  0.00     0.051 C 
HETATM   27  C   UNK     0      46.059  19.221  31.079  0.00  0.00    -0.027 A 
HETATM   28  C   UNK     0      46.932  18.823  34.645  0.00  0.00     0.115 C 
HETATM   29  H   UNK     0      46.728  15.896  34.906  0.00  0.00     0.165 HD
HETATM   30  H   UNK     0      48.801  14.708  32.496  0.00  0.00     0.165 HD
HETATM   31  H   UNK     0      47.404  15.600  30.940  0.00  0.00     0.165 HD
HETATM   32  H   UNK     0      45.335  16.787  33.234  0.00  0.00     0.165 HD
ENDROOT
BRANCH   6  33
HETATM   33  C   UNK     0      51.322  16.638  35.856  0.00  0.00     0.051 C 
BRANCH  33  34
HETATM   34  C   UNK     0      51.549  16.834  37.336  0.00  0.00     0.114 C 
BRANCH  34  35
HETATM   35  C   UNK     0      52.009  15.530  37.893  0.00  0.00     0.139 C 
HETATM   36  O   UNK     0      52.329  14.582  37.118  0.00  0.00    -0.650 OA
BRANCH  35  37
HETATM   37  O   UNK     0      52.111  15.292  39.259  0.00  0.00    -0.776 OA
HETATM   38  H   UNK     0      51.866  14.405  39.667  0.00  0.00     0.167 HD
ENDBRANCH  35  37
ENDBRANCH  34  35
ENDBRANCH  33  34
ENDBRANCH   6  33
BRANCH  27  39
HETATM   39  C   UNK     0      46.045  20.024  29.827  0.00  0.00     0.051 C 
BRANCH  39  40
HETATM   40  C   UNK     0      45.174  21.198  29.765  0.00  0.00     0.114 C 
BRANCH  40  41
HETATM   41  C   UNK     0      43.748  21.111  29.988  0.00  0.00     0.139 C 
HETATM   42  O   UNK     0      43.110  21.936  30.655  0.00  0.00    -0.650 OA
BRANCH  41  43
HETATM   43  O   UNK     0      43.024  20.027  29.417  0.00  0.00    -0.776 OA
HETATM   44  H   UNK     0      43.306  19.784  28.475  0.00  0.00     0.167 HD
ENDBRANCH  41  43
ENDBRANCH  40  41
ENDBRANCH  39  40
ENDBRANCH  27  39
BRANCH  11  45
HETATM   45  C   UNK     0      47.009  10.369  33.171  0.00  0.00     0.051 C 
BRANCH  45  46
HETATM   46  C   UNK     0      47.977   9.277  32.896  0.00  0.00     0.114 C 
BRANCH  46  47
HETATM   47  C   UNK     0      47.943   8.351  34.065  0.00  0.00     0.139 C 
HETATM   48  O   UNK     0      49.014   7.907  34.500  0.00  0.00    -0.650 OA
BRANCH  47  49
HETATM   49  O   UNK     0      46.751   7.998  34.646  0.00  0.00    -0.776 OA
HETATM   50  H   UNK     0      45.848   8.321  34.278  0.00  0.00     0.167 HD
ENDBRANCH  47  49
ENDBRANCH  46  47
ENDBRANCH  45  46
ENDBRANCH  11  45
BRANCH  18  51
HETATM   51  C   UNK     0      42.967  14.752  29.536  0.00  0.00     0.051 C 
BRANCH  51  52
HETATM   52  C   UNK     0      42.970  14.408  28.054  0.00  0.00     0.114 C 
BRANCH  52  53
HETATM   53  C   UNK     0      42.966  15.617  27.208  0.00  0.00     0.139 C 
HETATM   54  O   UNK     0      42.484  16.676  27.641  0.00  0.00    -0.650 OA
BRANCH  53  55
HETATM   55  O   UNK     0      43.494  15.563  25.942  0.00  0.00    -0.776 OA
HETATM   56  H   UNK     0      44.300  15.053  25.667  0.00  0.00     0.167 HD
ENDBRANCH  53  55
ENDBRANCH  52  53
ENDBRANCH  51  52
ENDBRANCH  18  51
TORSDOF 16
ENDMDL
MODEL 18
REMARK VINA RESULT:      -8.9      2.453      3.000
REMARK  16 active torsions:
REMARK  status: ('A' for Active; 'I' for Inactive)
REMARK    1  A    between atoms: C_6  and  C_7 
REMARK    2  A    between atoms: C_7  and  C_8 
REMARK    3  A    between atoms: C_8  and  C_9 
REMARK    4  A    between atoms: C_9  and  O_11 
REMARK    5  A    between atoms: C_16  and  C_17 
REMARK    6  A    between atoms: C_17  and  C_18 
REMARK    7  A    between atoms: C_18  and  C_19 
REMARK    8  A    between atoms: C_19  and  O_21 
REMARK    9  A    between atoms: C_28  and  C_29 
REMARK   10  A    between atoms: C_29  and  C_30 
REMARK   11  A    between atoms: C_30  and  C_31 
REMARK   12  A    between atoms: C_31  and  O_33 
REMARK   13  A    between atoms: C_42  and  C_43 
REMARK   14  A    between atoms: C_43  and  C_44 
REMARK   15  A    between atoms: C_44  and  C_45 
REMARK   16  A    between atoms: C_45  and  O_47 
ROOT
HETATM    1  C   UNK     0      39.463   9.563  64.265  0.00  0.00     0.051 C 
HETATM    2  C   UNK     0      39.345  11.074  64.279  0.00  0.00    -0.031 A 
HETATM    3  C   UNK     0      38.927  11.933  63.274  0.00  0.00     0.021 A 
HETATM    4  N   UNK     0      39.012  13.208  63.720  0.00  0.00    -0.361 N 
HETATM    5  C   UNK     0      39.468  13.181  64.990  0.00  0.00     0.022 A 
HETATM    6  C   UNK     0      39.689  11.861  65.370  0.00  0.00    -0.027 A 
HETATM    7  C   UNK     0      39.651  14.306  65.960  0.00  0.00     0.115 C 
HETATM    8  C   UNK     0      38.547  15.347  66.012  0.00  0.00     0.021 A 
HETATM    9  N   UNK     0      37.225  15.172  65.867  0.00  0.00    -0.361 N 
HETATM   10  C   UNK     0      36.635  16.386  65.895  0.00  0.00     0.022 A 
HETATM   11  C   UNK     0      37.604  17.370  66.072  0.00  0.00    -0.027 A 
HETATM   12  C   UNK     0      38.811  16.722  66.147  0.00  0.00    -0.031 A 
HETATM   13  C   UNK     0      40.152  17.393  66.345  0.00  0.00     0.051 C 
HETATM   14  C   UNK     0      35.148  16.671  65.702  0.00  0.00     0.115 C 
HETATM   15  C   UNK     0      34.607  16.233  64.351  0.00  0.00     0.021 A 
HETATM   16  N   UNK     0      34.619  14.994  63.824  0.00  0.00    -0.361 N 
HETATM   17  C   UNK     0      34.113  15.038  62.589  0.00  0.00     0.022 A 
HETATM   18  C   UNK     0      33.745  16.368  62.302  0.00  0.00    -0.027 A 
HETATM   19  C   UNK     0      34.059  17.106  63.413  0.00  0.00    -0.031 A 
HETATM   20  C   UNK     0      33.791  18.594  63.541  0.00  0.00     0.051 C 
HETATM   21  C   UNK     0      33.972  13.942  61.557  0.00  0.00     0.115 C 
HETATM   22  C   UNK     0      35.040  12.875  61.523  0.00  0.00     0.022 A 
HETATM   23  N   UNK     0      36.364  13.020  61.669  0.00  0.00    -0.361 N 
HETATM   24  C   UNK     0      36.922  11.793  61.717  0.00  0.00     0.021 A 
HETATM   25  C   UNK     0      35.935  10.835  61.588  0.00  0.00    -0.031 A 
HETATM   26  C   UNK     0      36.070   9.327  61.541  0.00  0.00     0.051 C 
HETATM   27  C   UNK     0      34.722  11.503  61.462  0.00  0.00    -0.027 A 
HETATM   28  C   UNK     0      38.379  11.444  61.963  0.00  0.00     0.115 C 
HETATM   29  H   UNK     0      38.788  14.121  63.122  0.00  0.00     0.165 HD
HETATM   30  H   UNK     0      36.698  14.189  65.794  0.00  0.00     0.165 HD
HETATM   31  H   UNK     0      34.947  14.061  64.351  0.00  0.00     0.165 HD
HETATM   32  H   UNK     0      36.922  13.991  61.697  0.00  0.00     0.165 HD
ENDROOT
BRANCH   6  33
HETATM   33  C   UNK     0      40.198  11.299  66.673  0.00  0.00     0.051 C 
BRANCH  33  34
HETATM   34  C   UNK     0      41.708  11.311  66.708  0.00  0.00     0.114 C 
BRANCH  34  35
HETATM   35  C   UNK     0      42.131  10.608  67.952  0.00  0.00     0.139 C 
HETATM   36  O   UNK     0      43.360  10.423  68.193  0.00  0.00    -0.650 OA
BRANCH  35  37
HETATM   37  O   UNK     0      41.223  10.132  68.890  0.00  0.00    -0.776 OA
HETATM   38  H   UNK     0      40.484  10.708  69.259  0.00  0.00     0.167 HD
ENDBRANCH  35  37
ENDBRANCH  34  35
ENDBRANCH  33  34
ENDBRANCH   6  33
BRANCH  27  39
HETATM   39  C   UNK     0      33.430  10.801  61.231  0.00  0.00     0.051 C 
BRANCH  39  40
HETATM   40  C   UNK     0      32.957  10.653  59.855  0.00  0.00     0.114 C 
BRANCH  40  41
HETATM   41  C   UNK     0      33.158   9.439  59.097  0.00  0.00     0.139 C 
HETATM   42  O   UNK     0      33.248   9.411  57.863  0.00  0.00    -0.650 OA
BRANCH  41  43
HETATM   43  O   UNK     0      33.260   8.200  59.792  0.00  0.00    -0.776 OA
HETATM   44  H   UNK     0      33.026   8.251  60.776  0.00  0.00     0.167 HD
ENDBRANCH  41  43
ENDBRANCH  40  41
ENDBRANCH  39  40
ENDBRANCH  27  39
BRANCH  11  45
HETATM   45  C   UNK     0      37.425  18.861  66.173  0.00  0.00     0.051 C 
BRANCH  45  46
HETATM   46  C   UNK     0      37.704  19.592  64.911  0.00  0.00     0.114 C 
BRANCH  46  47
HETATM   47  C   UNK     0      38.730  20.628  65.218  0.00  0.00     0.139 C 
HETATM   48  O   UNK     0      39.082  21.400  64.315  0.00  0.00    -0.650 OA
BRANCH  47  49
HETATM   49  O   UNK     0      39.276  20.727  66.474  0.00  0.00    -0.776 OA
HETATM   50  H   UNK     0      39.340  19.919  67.105  0.00  0.00     0.167 HD
ENDBRANCH  47  49
ENDBRANCH  46  47
ENDBRANCH  45  46
ENDBRANCH  11  45
BRANCH  18  51
HETATM   51  C   UNK     0      33.110  16.901  61.044  0.00  0.00     0.051 C 
BRANCH  51  52
HETATM   52  C   UNK     0      34.250  17.178  60.075  0.00  0.00     0.114 C 
BRANCH  52  53
HETATM   53  C   UNK     0      33.857  16.919  58.676  0.00  0.00     0.139 C 
HETATM   54  O   UNK     0      32.901  16.167  58.428  0.00  0.00    -0.650 OA
BRANCH  53  55
HETATM   55  O   UNK     0      34.557  17.512  57.653  0.00  0.00    -0.776 OA
HETATM   56  H   UNK     0      34.822  18.467  57.604  0.00  0.00     0.167 HD
ENDBRANCH  53  55
ENDBRANCH  52  53
ENDBRANCH  51  52
ENDBRANCH  18  51
TORSDOF 16
ENDMDL
MODEL 19
REMARK VINA RESULT:      -8.9     31.596     34.689
REMARK  16 active torsions:
REMARK  status: ('A' for Active; 'I' for Inactive)
REMARK    1  A    between atoms: C_6  and  C_7 
REMARK    2  A    between atoms: C_7  and  C_8 
REMARK    3  A    between atoms: C_8  and  C_9 
REMARK    4  A    between atoms: C_9  and  O_11 
REMARK    5  A    between atoms: C_16  and  C_17 
REMARK    6  A    between atoms: C_17  and  C_18 
REMARK    7  A    between atoms: C_18  and  C_19 
REMARK    8  A    between atoms: C_19  and  O_21 
REMARK    9  A    between atoms: C_28  and  C_29 
REMARK   10  A    between atoms: C_29  and  C_30 
REMARK   11  A    between atoms: C_30  and  C_31 
REMARK   12  A    between atoms: C_31  and  O_33 
REMARK   13  A    between atoms: C_42  and  C_43 
REMARK   14  A    between atoms: C_43  and  C_44 
REMARK   15  A    between atoms: C_44  and  C_45 
REMARK   16  A    between atoms: C_45  and  O_47 
ROOT
HETATM    1  C   UNK     0      44.141  21.395  29.909  0.00  0.00     0.051 C 
HETATM    2  C   UNK     0      44.620  19.965  30.060  0.00  0.00    -0.031 A 
HETATM    3  C   UNK     0      45.911  19.480  30.195  0.00  0.00     0.021 A 
HETATM    4  N   UNK     0      45.869  18.128  30.268  0.00  0.00    -0.361 N 
HETATM    5  C   UNK     0      44.578  17.742  30.189  0.00  0.00     0.022 A 
HETATM    6  C   UNK     0      43.770  18.866  30.056  0.00  0.00    -0.027 A 
HETATM    7  C   UNK     0      43.985  16.374  30.313  0.00  0.00     0.115 C 
HETATM    8  C   UNK     0      44.545  15.484  31.409  0.00  0.00     0.021 A 
HETATM    9  N   UNK     0      44.972  15.834  32.632  0.00  0.00    -0.361 N 
HETATM   10  C   UNK     0      45.472  14.732  33.232  0.00  0.00     0.022 A 
HETATM   11  C   UNK     0      45.354  13.642  32.375  0.00  0.00    -0.027 A 
HETATM   12  C   UNK     0      44.770  14.109  31.225  0.00  0.00    -0.031 A 
HETATM   13  C   UNK     0      44.441  13.271  30.010  0.00  0.00     0.051 C 
HETATM   14  C   UNK     0      46.126  14.674  34.610  0.00  0.00     0.115 C 
HETATM   15  C   UNK     0      47.371  15.536  34.737  0.00  0.00     0.021 A 
HETATM   16  N   UNK     0      47.473  16.865  34.549  0.00  0.00    -0.361 N 
HETATM   17  C   UNK     0      48.750  17.231  34.686  0.00  0.00     0.022 A 
HETATM   18  C   UNK     0      49.515  16.086  34.987  0.00  0.00    -0.027 A 
HETATM   19  C   UNK     0      48.640  15.032  35.017  0.00  0.00    -0.031 A 
HETATM   20  C   UNK     0      49.047  13.607  35.343  0.00  0.00     0.051 C 
HETATM   21  C   UNK     0      49.398  18.585  34.505  0.00  0.00     0.115 C 
HETATM   22  C   UNK     0      48.823  19.497  33.448  0.00  0.00     0.022 A 
HETATM   23  N   UNK     0      48.385  19.177  32.223  0.00  0.00    -0.361 N 
HETATM   24  C   UNK     0      47.821  20.272  31.674  0.00  0.00     0.021 A 
HETATM   25  C   UNK     0      47.907  21.326  32.563  0.00  0.00    -0.031 A 
HETATM   26  C   UNK     0      47.455  22.761  32.387  0.00  0.00     0.051 C 
HETATM   27  C   UNK     0      48.545  20.855  33.705  0.00  0.00    -0.027 A 
HETATM   28  C   UNK     0      47.106  20.379  30.339  0.00  0.00     0.115 C 
HETATM   29  H   UNK     0      46.754  17.454  30.333  0.00  0.00     0.165 HD
HETATM   30  H   UNK     0      44.877  16.847  33.095  0.00  0.00     0.165 HD
HETATM   31  H   UNK     0      46.620  17.568  34.363  0.00  0.00     0.165 HD
HETATM   32  H   UNK     0      48.509  18.184  31.717  0.00  0.00     0.165 HD
ENDROOT
BRANCH   6  33
HETATM   33  C   UNK     0      42.272  18.974  29.924  0.00  0.00     0.051 C 
BRANCH  33  34
HETATM   34  C   UNK     0      41.636  19.260  31.264  0.00  0.00     0.114 C 
BRANCH  34  35
HETATM   35  C   UNK     0      41.010  17.994  31.741  0.00  0.00     0.139 C 
HETATM   36  O   UNK     0      40.895  17.768  32.981  0.00  0.00    -0.650 OA
BRANCH  35  37
HETATM   37  O   UNK     0      40.532  17.021  30.872  0.00  0.00    -0.776 OA
HETATM   38  H   UNK     0      40.016  17.256  30.039  0.00  0.00     0.167 HD
ENDBRANCH  35  37
ENDBRANCH  34  35
ENDBRANCH  33  34
ENDBRANCH   6  33
BRANCH  27  39
HETATM   39  C   UNK     0      48.882  21.727  34.863  0.00  0.00     0.051 C 
BRANCH  39  40
HETATM   40  C   UNK     0      50.098  22.536  34.792  0.00  0.00     0.114 C 
BRANCH  40  41
HETATM   41  C   UNK     0      51.330  22.134  35.435  0.00  0.00     0.139 C 
HETATM   42  O   UNK     0      51.383  21.680  36.586  0.00  0.00    -0.650 OA
BRANCH  41  43
HETATM   43  O   UNK     0      52.555  22.261  34.721  0.00  0.00    -0.776 OA
HETATM   44  H   UNK     0      52.651  21.626  33.938  0.00  0.00     0.167 HD
ENDBRANCH  41  43
ENDBRANCH  40  41
ENDBRANCH  39  40
ENDBRANCH  27  39
BRANCH  11  45
HETATM   45  C   UNK     0      45.763  12.212  32.609  0.00  0.00     0.051 C 
BRANCH  45  46
HETATM   46  C   UNK     0      47.221  11.968  32.464  0.00  0.00     0.114 C 
BRANCH  46  47
HETATM   47  C   UNK     0      47.545  10.746  33.256  0.00  0.00     0.139 C 
HETATM   48  O   UNK     0      47.127  10.667  34.419  0.00  0.00    -0.650 OA
BRANCH  47  49
HETATM   49  O   UNK     0      48.290   9.732  32.710  0.00  0.00    -0.776 OA
HETATM   50  H   UNK     0      48.201   9.460  31.723  0.00  0.00     0.167 HD
ENDBRANCH  47  49
ENDBRANCH  46  47
ENDBRANCH  45  46
ENDBRANCH  11  45
BRANCH  18  51
HETATM   51  C   UNK     0      50.996  16.006  35.252  0.00  0.00     0.051 C 
BRANCH  51  52
HETATM   52  C   UNK     0      51.198  16.472  36.686  0.00  0.00     0.114 C 
BRANCH  52  53
HETATM   53  C   UNK     0      51.264  15.339  37.628  0.00  0.00     0.139 C 
HETATM   54  O   UNK     0      51.918  14.325  37.336  0.00  0.00    -0.650 OA
BRANCH  53  55
HETATM   55  O   UNK     0      50.596  15.411  38.826  0.00  0.00    -0.776 OA
HETATM   56  H   UNK     0      50.983  15.231  39.723  0.00  0.00     0.167 HD
ENDBRANCH  53  55
ENDBRANCH  52  53
ENDBRANCH  51  52
ENDBRANCH  18  51
TORSDOF 16
ENDMDL
MODEL 20
REMARK VINA RESULT:      -8.8     31.872     34.460
REMARK  16 active torsions:
REMARK  status: ('A' for Active; 'I' for Inactive)
REMARK    1  A    between atoms: C_6  and  C_7 
REMARK    2  A    between atoms: C_7  and  C_8 
REMARK    3  A    between atoms: C_8  and  C_9 
REMARK    4  A    between atoms: C_9  and  O_11 
REMARK    5  A    between atoms: C_16  and  C_17 
REMARK    6  A    between atoms: C_17  and  C_18 
REMARK    7  A    between atoms: C_18  and  C_19 
REMARK    8  A    between atoms: C_19  and  O_21 
REMARK    9  A    between atoms: C_28  and  C_29 
REMARK   10  A    between atoms: C_29  and  C_30 
REMARK   11  A    between atoms: C_30  and  C_31 
REMARK   12  A    between atoms: C_31  and  O_33 
REMARK   13  A    between atoms: C_42  and  C_43 
REMARK   14  A    between atoms: C_43  and  C_44 
REMARK   15  A    between atoms: C_44  and  C_45 
REMARK   16  A    between atoms: C_45  and  O_47 
ROOT
HETATM    1  C   UNK     0      42.563  14.252  30.936  0.00  0.00     0.051 C 
HETATM    2  C   UNK     0      42.960  15.677  31.264  0.00  0.00    -0.031 A 
HETATM    3  C   UNK     0      43.522  16.189  32.423  0.00  0.00     0.021 A 
HETATM    4  N   UNK     0      43.679  17.527  32.283  0.00  0.00    -0.361 N 
HETATM    5  C   UNK     0      43.238  17.877  31.057  0.00  0.00     0.022 A 
HETATM    6  C   UNK     0      42.778  16.744  30.394  0.00  0.00    -0.027 A 
HETATM    7  C   UNK     0      43.276  19.209  30.376  0.00  0.00     0.115 C 
HETATM    8  C   UNK     0      44.555  20.014  30.525  0.00  0.00     0.021 A 
HETATM    9  N   UNK     0      45.821  19.571  30.581  0.00  0.00    -0.361 N 
HETATM   10  C   UNK     0      46.626  20.630  30.811  0.00  0.00     0.022 A 
HETATM   11  C   UNK     0      45.859  21.788  30.896  0.00  0.00    -0.027 A 
HETATM   12  C   UNK     0      44.554  21.408  30.716  0.00  0.00    -0.031 A 
HETATM   13  C   UNK     0      43.363  22.339  30.724  0.00  0.00     0.051 C 
HETATM   14  C   UNK     0      48.138  20.585  31.012  0.00  0.00     0.115 C 
HETATM   15  C   UNK     0      48.576  19.755  32.208  0.00  0.00     0.021 A 
HETATM   16  N   UNK     0      48.329  18.452  32.439  0.00  0.00    -0.361 N 
HETATM   17  C   UNK     0      48.823  18.116  33.632  0.00  0.00     0.022 A 
HETATM   18  C   UNK     0      49.430  19.253  34.203  0.00  0.00    -0.027 A 
HETATM   19  C   UNK     0      49.269  20.272  33.301  0.00  0.00    -0.031 A 
HETATM   20  C   UNK     0      49.811  21.675  33.507  0.00  0.00     0.051 C 
HETATM   21  C   UNK     0      48.748  16.805  34.381  0.00  0.00     0.115 C 
HETATM   22  C   UNK     0      47.500  15.973  34.208  0.00  0.00     0.022 A 
HETATM   23  N   UNK     0      46.228  16.388  34.144  0.00  0.00    -0.361 N 
HETATM   24  C   UNK     0      45.452  15.329  33.837  0.00  0.00     0.021 A 
HETATM   25  C   UNK     0      46.242  14.203  33.710  0.00  0.00    -0.031 A 
HETATM   26  C   UNK     0      45.828  12.776  33.416  0.00  0.00     0.051 C 
HETATM   27  C   UNK     0      47.557  14.590  33.943  0.00  0.00    -0.027 A 
HETATM   28  C   UNK     0      43.957  15.319  33.568  0.00  0.00     0.115 C 
HETATM   29  H   UNK     0      44.064  18.220  33.066  0.00  0.00     0.165 HD
HETATM   30  H   UNK     0      46.154  18.518  30.409  0.00  0.00     0.165 HD
HETATM   31  H   UNK     0      47.838  17.742  31.724  0.00  0.00     0.165 HD
HETATM   32  H   UNK     0      45.860  17.425  34.358  0.00  0.00     0.165 HD
ENDROOT
BRANCH   6  33
HETATM   33  C   UNK     0      42.185  16.601  29.015  0.00  0.00     0.051 C 
BRANCH  33  34
HETATM   34  C   UNK     0      43.270  16.598  27.964  0.00  0.00     0.114 C 
BRANCH  34  35
HETATM   35  C   UNK     0      42.801  15.737  26.840  0.00  0.00     0.139 C 
HETATM   36  O   UNK     0      41.675  15.163  26.905  0.00  0.00    -0.650 OA
BRANCH  35  37
HETATM   37  O   UNK     0      43.554  15.527  25.692  0.00  0.00    -0.776 OA
HETATM   38  H   UNK     0      43.250  15.848  24.787  0.00  0.00     0.167 HD
ENDBRANCH  35  37
ENDBRANCH  34  35
ENDBRANCH  33  34
ENDBRANCH   6  33
BRANCH  27  39
HETATM   39  C   UNK     0      48.693  13.629  33.963  0.00  0.00     0.051 C 
BRANCH  39  40
HETATM   40  C   UNK     0      48.866  12.784  35.144  0.00  0.00     0.114 C 
BRANCH  40  41
HETATM   41  C   UNK     0      48.781  13.310  36.488  0.00  0.00     0.139 C 
HETATM   42  O   UNK     0      49.609  14.097  36.967  0.00  0.00    -0.650 OA
BRANCH  41  43
HETATM   43  O   UNK     0      47.695  12.913  37.318  0.00  0.00    -0.776 OA
HETATM   44  H   UNK     0      47.338  13.645  37.919  0.00  0.00     0.167 HD
ENDBRANCH  41  43
ENDBRANCH  40  41
ENDBRANCH  39  40
ENDBRANCH  27  39
BRANCH  11  45
HETATM   45  C   UNK     0      46.314  23.203  31.132  0.00  0.00     0.051 C 
BRANCH  45  46
HETATM   46  C   UNK     0      46.446  23.566  32.566  0.00  0.00     0.114 C 
BRANCH  46  47
HETATM   47  C   UNK     0      45.343  24.517  32.885  0.00  0.00     0.139 C 
HETATM   48  O   UNK     0      44.968  25.305  32.005  0.00  0.00    -0.650 OA
BRANCH  47  49
HETATM   49  O   UNK     0      44.755  24.522  34.124  0.00  0.00    -0.776 OA
HETATM   50  H   UNK     0      44.602  23.659  34.659  0.00  0.00     0.167 HD
ENDBRANCH  47  49
ENDBRANCH  46  47
ENDBRANCH  45  46
ENDBRANCH  11  45
BRANCH  18  51
HETATM   51  C   UNK     0      50.142  19.357  35.527  0.00  0.00     0.051 C 
BRANCH  51  52
HETATM   52  C   UNK     0      49.081  19.722  36.554  0.00  0.00     0.114 C 
BRANCH  52  53
HETATM   53  C   UNK     0      49.617  19.706  37.929  0.00  0.00     0.139 C 
HETATM   54  O   UNK     0      49.511  20.711  38.649  0.00  0.00    -0.650 OA
BRANCH  53  55
HETATM   55  O   UNK     0      50.237  18.575  38.402  0.00  0.00    -0.776 OA
HETATM   56  H   UNK     0      50.729  17.906  37.857  0.00  0.00     0.167 HD
ENDBRANCH  53  55
ENDBRANCH  52  53
ENDBRANCH  51  52
ENDBRANCH  18  51
TORSDOF 16
ENDMDL
