MODEL 1
REMARK VINA RESULT:     -10.1      0.000      0.000
REMARK  16 active torsions:
REMARK  status: ('A' for Active; 'I' for Inactive)
REMARK    1  A    between atoms: C_6  and  C_7 
REMARK    2  A    between atoms: C_7  and  C_8 
REMARK    3  A    between atoms: C_8  and  C_9 
REMARK    4  A    between atoms: C_9  and  O_11 
REMARK    5  A    between atoms: C_16  and  C_17 
REMARK    6  A    between atoms: C_17  and  C_18 
REMARK    7  A    between atoms: C_18  and  C_19 
REMARK    8  A    between atoms: C_19  and  O_21 
REMARK    9  A    between atoms: C_28  and  C_29 
REMARK   10  A    between atoms: C_29  and  C_30 
REMARK   11  A    between atoms: C_30  and  C_31 
REMARK   12  A    between atoms: C_31  and  O_33 
REMARK   13  A    between atoms: C_42  and  C_43 
REMARK   14  A    between atoms: C_43  and  C_44 
REMARK   15  A    between atoms: C_44  and  C_45 
REMARK   16  A    between atoms: C_45  and  O_47 
ROOT
HETATM    1  C   UNK     0      -9.353  -9.046   0.198  0.00  0.00     0.051 C 
HETATM    2  C   UNK     0      -9.821  -9.545  -1.153  0.00  0.00    -0.031 A 
HETATM    3  C   UNK     0      -9.093 -10.139  -2.172  0.00  0.00     0.021 A 
HETATM    4  N   UNK     0      -9.920 -10.394  -3.214  0.00  0.00    -0.361 N 
HETATM    5  C   UNK     0     -11.160  -9.983  -2.878  0.00  0.00     0.022 A 
HETATM    6  C   UNK     0     -11.133  -9.444  -1.597  0.00  0.00    -0.027 A 
HETATM    7  C   UNK     0     -12.445 -10.120  -3.633  0.00  0.00     0.115 C 
HETATM    8  C   UNK     0     -12.697 -11.453  -4.314  0.00  0.00     0.021 A 
HETATM    9  N   UNK     0     -12.361 -12.683  -3.895  0.00  0.00    -0.361 N 
HETATM   10  C   UNK     0     -12.699 -13.563  -4.861  0.00  0.00     0.022 A 
HETATM   11  C   UNK     0     -13.278 -12.882  -5.928  0.00  0.00    -0.027 A 
HETATM   12  C   UNK     0     -13.280 -11.553  -5.590  0.00  0.00    -0.031 A 
HETATM   13  C   UNK     0     -13.821 -10.433  -6.451  0.00  0.00     0.051 C 
HETATM   14  C   UNK     0     -12.444 -15.067  -4.840  0.00  0.00     0.115 C 
HETATM   15  C   UNK     0     -10.972 -15.440  -4.756  0.00  0.00     0.021 A 
HETATM   16  N   UNK     0     -10.092 -15.099  -3.797  0.00  0.00    -0.361 N 
HETATM   17  C   UNK     0      -8.884 -15.564  -4.125  0.00  0.00     0.022 A 
HETATM   18  C   UNK     0      -8.985 -16.250  -5.351  0.00  0.00    -0.027 A 
HETATM   19  C   UNK     0     -10.298 -16.167  -5.736  0.00  0.00    -0.031 A 
HETATM   20  C   UNK     0     -10.851 -16.809  -6.995  0.00  0.00     0.051 C 
HETATM   21  C   UNK     0      -7.554 -15.392  -3.426  0.00  0.00     0.115 C 
HETATM   22  C   UNK     0      -7.308 -14.087  -2.707  0.00  0.00     0.022 A 
HETATM   23  N   UNK     0      -7.635 -12.849  -3.099  0.00  0.00    -0.361 N 
HETATM   24  C   UNK     0      -7.360 -11.998  -2.090  0.00  0.00     0.021 A 
HETATM   25  C   UNK     0      -6.833 -12.705  -1.026  0.00  0.00    -0.031 A 
HETATM   26  C   UNK     0      -6.336 -12.188   0.309  0.00  0.00     0.051 C 
HETATM   27  C   UNK     0      -6.789 -14.044  -1.397  0.00  0.00    -0.027 A 
HETATM   28  C   UNK     0      -7.644 -10.507  -2.027  0.00  0.00     0.115 C 
HETATM   29  H   UNK     0      -9.613 -10.827  -4.195  0.00  0.00     0.165 HD
HETATM   30  H   UNK     0     -11.930 -12.939  -2.896  0.00  0.00     0.165 HD
HETATM   31  H   UNK     0     -10.336 -14.559  -2.845  0.00  0.00     0.165 HD
HETATM   32  H   UNK     0      -8.024 -12.557  -4.110  0.00  0.00     0.165 HD
ENDROOT
BRANCH   6  33
HETATM   33  C   UNK     0     -12.245  -8.845  -0.773  0.00  0.00     0.051 C 
BRANCH  33  34
HETATM   34  C   UNK     0     -13.211  -9.914  -0.321  0.00  0.00     0.114 C 
BRANCH  34  35
HETATM   35  C   UNK     0     -14.543  -9.590  -0.908  0.00  0.00     0.139 C 
HETATM   36  O   UNK     0     -15.164  -8.549  -0.544  0.00  0.00    -0.650 OA
BRANCH  35  37
HETATM   37  O   UNK     0     -15.156 -10.392  -1.863  0.00  0.00    -0.776 OA
HETATM   38  H   UNK     0     -15.994 -10.915  -1.665  0.00  0.00     0.167 HD
ENDBRANCH  35  37
ENDBRANCH  34  35
ENDBRANCH  33  34
ENDBRANCH   6  33
BRANCH  27  39
HETATM   39  C   UNK     0      -6.212 -15.107  -0.530  0.00  0.00     0.051 C 
BRANCH  39  40
HETATM   40  C   UNK     0      -4.823 -15.506  -0.753  0.00  0.00     0.114 C 
BRANCH  40  41
HETATM   41  C   UNK     0      -4.321 -15.850  -2.065  0.00  0.00     0.139 C 
HETATM   42  O   UNK     0      -4.438 -16.976  -2.567  0.00  0.00    -0.650 OA
BRANCH  41  43
HETATM   43  O   UNK     0      -3.655 -14.854  -2.833  0.00  0.00    -0.776 OA
HETATM   44  H   UNK     0      -3.611 -13.943  -2.391  0.00  0.00     0.167 HD
ENDBRANCH  41  43
ENDBRANCH  40  41
ENDBRANCH  39  40
ENDBRANCH  27  39
BRANCH  11  45
HETATM   45  C   UNK     0     -13.816 -13.438  -7.219  0.00  0.00     0.051 C 
BRANCH  45  46
HETATM   46  C   UNK     0     -15.288 -13.634  -7.228  0.00  0.00     0.114 C 
BRANCH  46  47
HETATM   47  C   UNK     0     -15.540 -15.079  -7.498  0.00  0.00     0.139 C 
HETATM   48  O   UNK     0     -16.253 -15.713  -6.708  0.00  0.00    -0.650 OA
BRANCH  47  49
HETATM   49  O   UNK     0     -14.993 -15.694  -8.596  0.00  0.00    -0.776 OA
HETATM   50  H   UNK     0     -14.221 -16.366  -8.516  0.00  0.00     0.167 HD
ENDBRANCH  47  49
ENDBRANCH  46  47
ENDBRANCH  45  46
ENDBRANCH  11  45
BRANCH  18  51
HETATM   51  C   UNK     0      -7.893 -16.965  -6.105  0.00  0.00     0.051 C 
BRANCH  51  52
HETATM   52  C   UNK     0      -7.157 -15.898  -6.901  0.00  0.00     0.114 C 
BRANCH  52  53
HETATM   53  C   UNK     0      -7.098 -16.227  -8.339  0.00  0.00     0.139 C 
HETATM   54  O   UNK     0      -8.108 -16.659  -8.919  0.00  0.00    -0.650 OA
BRANCH  53  55
HETATM   55  O   UNK     0      -5.922 -16.057  -9.028  0.00  0.00    -0.776 OA
HETATM   56  H   UNK     0      -5.745 -16.346  -9.961  0.00  0.00     0.167 HD
ENDBRANCH  53  55
ENDBRANCH  52  53
ENDBRANCH  51  52
ENDBRANCH  18  51
TORSDOF 16
ENDMDL
MODEL 2
REMARK VINA RESULT:      -9.4      2.237      9.132
REMARK  16 active torsions:
REMARK  status: ('A' for Active; 'I' for Inactive)
REMARK    1  A    between atoms: C_6  and  C_7 
REMARK    2  A    between atoms: C_7  and  C_8 
REMARK    3  A    between atoms: C_8  and  C_9 
REMARK    4  A    between atoms: C_9  and  O_11 
REMARK    5  A    between atoms: C_16  and  C_17 
REMARK    6  A    between atoms: C_17  and  C_18 
REMARK    7  A    between atoms: C_18  and  C_19 
REMARK    8  A    between atoms: C_19  and  O_21 
REMARK    9  A    between atoms: C_28  and  C_29 
REMARK   10  A    between atoms: C_29  and  C_30 
REMARK   11  A    between atoms: C_30  and  C_31 
REMARK   12  A    between atoms: C_31  and  O_33 
REMARK   13  A    between atoms: C_42  and  C_43 
REMARK   14  A    between atoms: C_43  and  C_44 
REMARK   15  A    between atoms: C_44  and  C_45 
REMARK   16  A    between atoms: C_45  and  O_47 
ROOT
HETATM    1  C   UNK     0     -15.870 -14.507  -6.625  0.00  0.00     0.051 C 
HETATM    2  C   UNK     0     -14.356 -14.542  -6.567  0.00  0.00    -0.031 A 
HETATM    3  C   UNK     0     -13.451 -13.492  -6.576  0.00  0.00     0.021 A 
HETATM    4  N   UNK     0     -12.194 -13.993  -6.541  0.00  0.00    -0.361 N 
HETATM    5  C   UNK     0     -12.278 -15.339  -6.502  0.00  0.00     0.022 A 
HETATM    6  C   UNK     0     -13.616 -15.716  -6.520  0.00  0.00    -0.027 A 
HETATM    7  C   UNK     0     -11.189 -16.357  -6.362  0.00  0.00     0.115 C 
HETATM    8  C   UNK     0     -10.095 -16.051  -5.355  0.00  0.00     0.021 A 
HETATM    9  N   UNK     0     -10.199 -15.428  -4.170  0.00  0.00    -0.361 N 
HETATM   10  C   UNK     0      -8.957 -15.293  -3.658  0.00  0.00     0.022 A 
HETATM   11  C   UNK     0      -8.029 -15.852  -4.531  0.00  0.00    -0.027 A 
HETATM   12  C   UNK     0      -8.739 -16.331  -5.603  0.00  0.00    -0.031 A 
HETATM   13  C   UNK     0      -8.143 -17.030  -6.804  0.00  0.00     0.051 C 
HETATM   14  C   UNK     0      -8.592 -14.587  -2.355  0.00  0.00     0.115 C 
HETATM   15  C   UNK     0      -8.967 -13.114  -2.326  0.00  0.00     0.021 A 
HETATM   16  N   UNK     0     -10.190 -12.575  -2.482  0.00  0.00    -0.361 N 
HETATM   17  C   UNK     0     -10.088 -11.244  -2.462  0.00  0.00     0.022 A 
HETATM   18  C   UNK     0      -8.735 -10.900  -2.275  0.00  0.00    -0.027 A 
HETATM   19  C   UNK     0      -8.043 -12.080  -2.190  0.00  0.00    -0.031 A 
HETATM   20  C   UNK     0      -6.547 -12.166  -1.950  0.00  0.00     0.051 C 
HETATM   21  C   UNK     0     -11.148 -10.185  -2.666  0.00  0.00     0.115 C 
HETATM   22  C   UNK     0     -12.267 -10.494  -3.632  0.00  0.00     0.022 A 
HETATM   23  N   UNK     0     -12.193 -11.116  -4.816  0.00  0.00    -0.361 N 
HETATM   24  C   UNK     0     -13.447 -11.309  -5.272  0.00  0.00     0.021 A 
HETATM   25  C   UNK     0     -14.350 -10.790  -4.364  0.00  0.00    -0.031 A 
HETATM   26  C   UNK     0     -15.861 -10.731  -4.450  0.00  0.00     0.051 C 
HETATM   27  C   UNK     0     -13.619 -10.263  -3.306  0.00  0.00    -0.027 A 
HETATM   28  C   UNK     0     -13.877 -12.052  -6.525  0.00  0.00     0.115 C 
HETATM   29  H   UNK     0     -11.255 -13.394  -6.585  0.00  0.00     0.165 HD
HETATM   30  H   UNK     0     -11.152 -15.128  -3.670  0.00  0.00     0.165 HD
HETATM   31  H   UNK     0     -11.153 -13.144  -2.560  0.00  0.00     0.165 HD
HETATM   32  H   UNK     0     -11.252 -11.386  -5.362  0.00  0.00     0.165 HD
ENDROOT
BRANCH   6  33
HETATM   33  C   UNK     0     -14.237 -17.090  -6.498  0.00  0.00     0.051 C 
BRANCH  33  34
HETATM   34  C   UNK     0     -14.650 -17.513  -7.888  0.00  0.00     0.114 C 
BRANCH  34  35
HETATM   35  C   UNK     0     -16.066 -17.973  -7.813  0.00  0.00     0.139 C 
HETATM   36  O   UNK     0     -16.393 -18.900  -7.016  0.00  0.00    -0.650 OA
BRANCH  35  37
HETATM   37  O   UNK     0     -17.076 -17.421  -8.592  0.00  0.00    -0.776 OA
HETATM   38  H   UNK     0     -18.050 -17.548  -8.373  0.00  0.00     0.167 HD
ENDBRANCH  35  37
ENDBRANCH  34  35
ENDBRANCH  33  34
ENDBRANCH   6  33
BRANCH  27  39
HETATM   39  C   UNK     0     -14.248  -9.550  -2.161  0.00  0.00     0.051 C 
BRANCH  39  40
HETATM   40  C   UNK     0     -14.768  -8.201  -2.385  0.00  0.00     0.114 C 
BRANCH  40  41
HETATM   41  C   UNK     0     -16.167  -7.877  -2.220  0.00  0.00     0.139 C 
HETATM   42  O   UNK     0     -16.660  -6.790  -2.551  0.00  0.00    -0.650 OA
BRANCH  41  43
HETATM   43  O   UNK     0     -17.038  -8.847  -1.648  0.00  0.00    -0.776 OA
HETATM   44  H   UNK     0     -18.001  -8.546  -1.561  0.00  0.00     0.167 HD
ENDBRANCH  41  43
ENDBRANCH  40  41
ENDBRANCH  39  40
ENDBRANCH  27  39
BRANCH  11  45
HETATM   45  C   UNK     0      -6.534 -15.945  -4.384  0.00  0.00     0.051 C 
BRANCH  45  46
HETATM   46  C   UNK     0      -6.089 -16.659  -3.160  0.00  0.00     0.114 C 
BRANCH  46  47
HETATM   47  C   UNK     0      -4.895 -15.935  -2.637  0.00  0.00     0.139 C 
HETATM   48  O   UNK     0      -4.396 -16.312  -1.567  0.00  0.00    -0.650 OA
BRANCH  47  49
HETATM   49  O   UNK     0      -4.359 -14.875  -3.323  0.00  0.00    -0.776 OA
HETATM   50  H   UNK     0      -3.348 -14.772  -3.465  0.00  0.00     0.167 HD
ENDBRANCH  47  49
ENDBRANCH  46  47
ENDBRANCH  45  46
ENDBRANCH  11  45
BRANCH  18  51
HETATM   51  C   UNK     0      -8.136  -9.522  -2.162  0.00  0.00     0.051 C 
BRANCH  51  52
HETATM   52  C   UNK     0      -7.882  -9.288  -0.680  0.00  0.00     0.114 C 
BRANCH  52  53
HETATM   53  C   UNK     0      -6.466  -8.977  -0.408  0.00  0.00     0.139 C 
HETATM   54  O   UNK     0      -6.030  -9.029   0.754  0.00  0.00    -0.650 OA
BRANCH  53  55
HETATM   55  O   UNK     0      -5.636  -8.626  -1.444  0.00  0.00    -0.776 OA
HETATM   56  H   UNK     0      -4.687  -8.345  -1.364  0.00  0.00     0.167 HD
ENDBRANCH  53  55
ENDBRANCH  52  53
ENDBRANCH  51  52
ENDBRANCH  18  51
TORSDOF 16
ENDMDL
MODEL 3
REMARK VINA RESULT:      -8.5      2.667      9.848
REMARK  16 active torsions:
REMARK  status: ('A' for Active; 'I' for Inactive)
REMARK    1  A    between atoms: C_6  and  C_7 
REMARK    2  A    between atoms: C_7  and  C_8 
REMARK    3  A    between atoms: C_8  and  C_9 
REMARK    4  A    between atoms: C_9  and  O_11 
REMARK    5  A    between atoms: C_16  and  C_17 
REMARK    6  A    between atoms: C_17  and  C_18 
REMARK    7  A    between atoms: C_18  and  C_19 
REMARK    8  A    between atoms: C_19  and  O_21 
REMARK    9  A    between atoms: C_28  and  C_29 
REMARK   10  A    between atoms: C_29  and  C_30 
REMARK   11  A    between atoms: C_30  and  C_31 
REMARK   12  A    between atoms: C_31  and  O_33 
REMARK   13  A    between atoms: C_42  and  C_43 
REMARK   14  A    between atoms: C_43  and  C_44 
REMARK   15  A    between atoms: C_44  and  C_45 
REMARK   16  A    between atoms: C_45  and  O_47 
ROOT
HETATM    1  C   UNK     0      -7.923 -19.821  -6.371  0.00  0.00     0.051 C 
HETATM    2  C   UNK     0      -7.617 -18.427  -5.863  0.00  0.00    -0.031 A 
HETATM    3  C   UNK     0      -8.099 -17.205  -6.304  0.00  0.00     0.021 A 
HETATM    4  N   UNK     0      -7.529 -16.217  -5.575  0.00  0.00    -0.361 N 
HETATM    5  C   UNK     0      -6.701 -16.783  -4.673  0.00  0.00     0.022 A 
HETATM    6  C   UNK     0      -6.730 -18.165  -4.827  0.00  0.00    -0.027 A 
HETATM    7  C   UNK     0      -5.907 -16.144  -3.576  0.00  0.00     0.115 C 
HETATM    8  C   UNK     0      -6.606 -15.062  -2.771  0.00  0.00     0.021 A 
HETATM    9  N   UNK     0      -7.896 -14.991  -2.408  0.00  0.00    -0.361 N 
HETATM   10  C   UNK     0      -8.091 -13.811  -1.783  0.00  0.00     0.022 A 
HETATM   11  C   UNK     0      -6.892 -13.107  -1.733  0.00  0.00    -0.027 A 
HETATM   12  C   UNK     0      -5.952 -13.889  -2.353  0.00  0.00    -0.031 A 
HETATM   13  C   UNK     0      -4.494 -13.529  -2.531  0.00  0.00     0.051 C 
HETATM   14  C   UNK     0      -9.422 -13.279  -1.257  0.00  0.00     0.115 C 
HETATM   15  C   UNK     0     -10.480 -13.097  -2.333  0.00  0.00     0.021 A 
HETATM   16  N   UNK     0     -10.980 -14.034  -3.160  0.00  0.00    -0.361 N 
HETATM   17  C   UNK     0     -11.838 -13.459  -4.006  0.00  0.00     0.022 A 
HETATM   18  C   UNK     0     -11.908 -12.084  -3.709  0.00  0.00    -0.027 A 
HETATM   19  C   UNK     0     -11.054 -11.870  -2.659  0.00  0.00    -0.031 A 
HETATM   20  C   UNK     0     -10.852 -10.519  -1.996  0.00  0.00     0.051 C 
HETATM   21  C   UNK     0     -12.606 -14.054  -5.165  0.00  0.00     0.115 C 
HETATM   22  C   UNK     0     -11.940 -15.161  -5.948  0.00  0.00     0.022 A 
HETATM   23  N   UNK     0     -10.657 -15.260  -6.319  0.00  0.00    -0.361 N 
HETATM   24  C   UNK     0     -10.468 -16.476  -6.871  0.00  0.00     0.021 A 
HETATM   25  C   UNK     0     -11.661 -17.173  -6.864  0.00  0.00    -0.031 A 
HETATM   26  C   UNK     0     -11.961 -18.555  -7.407  0.00  0.00     0.051 C 
HETATM   27  C   UNK     0     -12.618 -16.352  -6.278  0.00  0.00    -0.027 A 
HETATM   28  C   UNK     0      -9.164 -17.083  -7.357  0.00  0.00     0.115 C 
HETATM   29  H   UNK     0      -7.685 -15.124  -5.729  0.00  0.00     0.165 HD
HETATM   30  H   UNK     0      -8.660 -15.795  -2.548  0.00  0.00     0.165 HD
HETATM   31  H   UNK     0     -10.760 -15.132  -3.117  0.00  0.00     0.165 HD
HETATM   32  H   UNK     0      -9.882 -14.455  -6.235  0.00  0.00     0.165 HD
ENDROOT
BRANCH   6  33
HETATM   33  C   UNK     0      -5.986 -19.241  -4.077  0.00  0.00     0.051 C 
BRANCH  33  34
HETATM   34  C   UNK     0      -6.950 -20.174  -3.384  0.00  0.00     0.114 C 
BRANCH  34  35
HETATM   35  C   UNK     0      -6.163 -21.337  -2.882  0.00  0.00     0.139 C 
HETATM   36  O   UNK     0      -4.914 -21.233  -2.706  0.00  0.00    -0.650 OA
BRANCH  35  37
HETATM   37  O   UNK     0      -6.745 -22.564  -2.588  0.00  0.00    -0.776 OA
HETATM   38  H   UNK     0      -6.911 -23.260  -3.296  0.00  0.00     0.167 HD
ENDBRANCH  35  37
ENDBRANCH  34  35
ENDBRANCH  33  34
ENDBRANCH   6  33
BRANCH  27  39
HETATM   39  C   UNK     0     -14.051 -16.735  -6.158  0.00  0.00     0.051 C 
BRANCH  39  40
HETATM   40  C   UNK     0     -14.949 -16.419  -7.269  0.00  0.00     0.114 C 
BRANCH  40  41
HETATM   41  C   UNK     0     -15.051 -15.088  -7.823  0.00  0.00     0.139 C 
HETATM   42  O   UNK     0     -15.808 -14.217  -7.374  0.00  0.00    -0.650 OA
BRANCH  41  43
HETATM   43  O   UNK     0     -14.244 -14.742  -8.944  0.00  0.00    -0.776 OA
HETATM   44  H   UNK     0     -13.368 -14.294  -8.708  0.00  0.00     0.167 HD
ENDBRANCH  41  43
ENDBRANCH  40  41
ENDBRANCH  39  40
ENDBRANCH  27  39
BRANCH  11  45
HETATM   45  C   UNK     0      -6.618 -11.755  -1.130  0.00  0.00     0.051 C 
BRANCH  45  46
HETATM   46  C   UNK     0      -6.705 -10.631  -2.097  0.00  0.00     0.114 C 
BRANCH  46  47
HETATM   47  C   UNK     0      -6.261  -9.400  -1.383  0.00  0.00     0.139 C 
HETATM   48  O   UNK     0      -5.354  -9.495  -0.544  0.00  0.00    -0.650 OA
BRANCH  47  49
HETATM   49  O   UNK     0      -6.844  -8.186  -1.647  0.00  0.00    -0.776 OA
HETATM   50  H   UNK     0      -7.859  -8.082  -1.762  0.00  0.00     0.167 HD
ENDBRANCH  47  49
ENDBRANCH  46  47
ENDBRANCH  45  46
ENDBRANCH  11  45
BRANCH  18  51
HETATM   51  C   UNK     0     -12.758 -11.034  -4.377  0.00  0.00     0.051 C 
BRANCH  51  52
HETATM   52  C   UNK     0     -14.116 -11.088  -3.694  0.00  0.00     0.114 C 
BRANCH  52  53
HETATM   53  C   UNK     0     -14.419  -9.837  -2.972  0.00  0.00     0.139 C 
HETATM   54  O   UNK     0     -13.735  -8.821  -3.175  0.00  0.00    -0.650 OA
BRANCH  53  55
HETATM   55  O   UNK     0     -15.458  -9.805  -2.074  0.00  0.00    -0.776 OA
HETATM   56  H   UNK     0     -15.383  -9.625  -1.101  0.00  0.00     0.167 HD
ENDBRANCH  53  55
ENDBRANCH  52  53
ENDBRANCH  51  52
ENDBRANCH  18  51
TORSDOF 16
ENDMDL
MODEL 4
REMARK VINA RESULT:      -8.4      2.711      9.488
REMARK  16 active torsions:
REMARK  status: ('A' for Active; 'I' for Inactive)
REMARK    1  A    between atoms: C_6  and  C_7 
REMARK    2  A    between atoms: C_7  and  C_8 
REMARK    3  A    between atoms: C_8  and  C_9 
REMARK    4  A    between atoms: C_9  and  O_11 
REMARK    5  A    between atoms: C_16  and  C_17 
REMARK    6  A    between atoms: C_17  and  C_18 
REMARK    7  A    between atoms: C_18  and  C_19 
REMARK    8  A    between atoms: C_19  and  O_21 
REMARK    9  A    between atoms: C_28  and  C_29 
REMARK   10  A    between atoms: C_29  and  C_30 
REMARK   11  A    between atoms: C_30  and  C_31 
REMARK   12  A    between atoms: C_31  and  O_33 
REMARK   13  A    between atoms: C_42  and  C_43 
REMARK   14  A    between atoms: C_43  and  C_44 
REMARK   15  A    between atoms: C_44  and  C_45 
REMARK   16  A    between atoms: C_45  and  O_47 
ROOT
HETATM    1  C   UNK     0      -7.489 -19.302  -5.620  0.00  0.00     0.051 C 
HETATM    2  C   UNK     0      -7.535 -17.798  -5.444  0.00  0.00    -0.031 A 
HETATM    3  C   UNK     0      -8.173 -16.841  -6.218  0.00  0.00     0.021 A 
HETATM    4  N   UNK     0      -7.917 -15.615  -5.704  0.00  0.00    -0.361 N 
HETATM    5  C   UNK     0      -7.137 -15.770  -4.614  0.00  0.00     0.022 A 
HETATM    6  C   UNK     0      -6.877 -17.123  -4.424  0.00  0.00    -0.027 A 
HETATM    7  C   UNK     0      -6.652 -14.745  -3.637  0.00  0.00     0.115 C 
HETATM    8  C   UNK     0      -7.657 -13.695  -3.196  0.00  0.00     0.021 A 
HETATM    9  N   UNK     0      -8.976 -13.833  -2.990  0.00  0.00    -0.361 N 
HETATM   10  C   UNK     0      -9.484 -12.618  -2.698  0.00  0.00     0.022 A 
HETATM   11  C   UNK     0      -8.464 -11.671  -2.706  0.00  0.00    -0.027 A 
HETATM   12  C   UNK     0      -7.310 -12.343  -3.019  0.00  0.00    -0.031 A 
HETATM   13  C   UNK     0      -5.938 -11.717  -3.138  0.00  0.00     0.051 C 
HETATM   14  C   UNK     0     -10.955 -12.291  -2.452  0.00  0.00     0.115 C 
HETATM   15  C   UNK     0     -11.858 -12.591  -3.637  0.00  0.00     0.021 A 
HETATM   16  N   UNK     0     -12.041 -13.774  -4.252  0.00  0.00    -0.361 N 
HETATM   17  C   UNK     0     -12.859 -13.605  -5.294  0.00  0.00     0.022 A 
HETATM   18  C   UNK     0     -13.235 -12.249  -5.354  0.00  0.00    -0.027 A 
HETATM   19  C   UNK     0     -12.603 -11.624  -4.311  0.00  0.00    -0.031 A 
HETATM   20  C   UNK     0     -12.764 -10.150  -3.986  0.00  0.00     0.051 C 
HETATM   21  C   UNK     0     -13.319 -14.596  -6.339  0.00  0.00     0.115 C 
HETATM   22  C   UNK     0     -12.345 -15.673  -6.755  0.00  0.00     0.022 A 
HETATM   23  N   UNK     0     -11.026 -15.565  -6.964  0.00  0.00    -0.361 N 
HETATM   24  C   UNK     0     -10.528 -16.799  -7.176  0.00  0.00     0.021 A 
HETATM   25  C   UNK     0     -11.552 -17.724  -7.114  0.00  0.00    -0.031 A 
HETATM   26  C   UNK     0     -11.498 -19.223  -7.325  0.00  0.00     0.051 C 
HETATM   27  C   UNK     0     -12.725 -17.028  -6.846  0.00  0.00    -0.027 A 
HETATM   28  C   UNK     0      -9.074 -17.194  -7.368  0.00  0.00     0.115 C 
HETATM   29  H   UNK     0      -8.256 -14.646  -6.138  0.00  0.00     0.165 HD
HETATM   30  H   UNK     0      -9.542 -14.796  -3.001  0.00  0.00     0.165 HD
HETATM   31  H   UNK     0     -11.622 -14.759  -3.917  0.00  0.00     0.165 HD
HETATM   32  H   UNK     0     -10.441 -14.609  -7.005  0.00  0.00     0.165 HD
ENDROOT
BRANCH   6  33
HETATM   33  C   UNK     0      -6.059 -17.814  -3.363  0.00  0.00     0.051 C 
BRANCH  33  34
HETATM   34  C   UNK     0      -4.639 -17.300  -3.363  0.00  0.00     0.114 C 
BRANCH  34  35
HETATM   35  C   UNK     0      -4.227 -17.126  -1.940  0.00  0.00     0.139 C 
HETATM   36  O   UNK     0      -3.494 -17.992  -1.379  0.00  0.00    -0.650 OA
BRANCH  35  37
HETATM   37  O   UNK     0      -4.615 -16.032  -1.176  0.00  0.00    -0.776 OA
HETATM   38  H   UNK     0      -4.129 -15.151  -1.220  0.00  0.00     0.167 HD
ENDBRANCH  35  37
ENDBRANCH  34  35
ENDBRANCH  33  34
ENDBRANCH   6  33
BRANCH  27  39
HETATM   39  C   UNK     0     -14.059 -17.683  -6.775  0.00  0.00     0.051 C 
BRANCH  39  40
HETATM   40  C   UNK     0     -15.009 -17.441  -7.861  0.00  0.00     0.114 C 
BRANCH  40  41
HETATM   41  C   UNK     0     -16.293 -16.815  -7.636  0.00  0.00     0.139 C 
HETATM   42  O   UNK     0     -17.316 -17.107  -8.269  0.00  0.00    -0.650 OA
BRANCH  41  43
HETATM   43  O   UNK     0     -16.405 -15.807  -6.637  0.00  0.00    -0.776 OA
HETATM   44  H   UNK     0     -15.853 -14.976  -6.816  0.00  0.00     0.167 HD
ENDBRANCH  41  43
ENDBRANCH  40  41
ENDBRANCH  39  40
ENDBRANCH  27  39
BRANCH  11  45
HETATM   45  C   UNK     0      -8.547 -10.194  -2.432  0.00  0.00     0.051 C 
BRANCH  45  46
HETATM   46  C   UNK     0      -8.426  -9.836  -0.995  0.00  0.00     0.114 C 
BRANCH  46  47
HETATM   47  C   UNK     0      -7.237  -8.948  -0.860  0.00  0.00     0.139 C 
HETATM   48  O   UNK     0      -6.844  -8.653   0.278  0.00  0.00    -0.650 OA
BRANCH  47  49
HETATM   49  O   UNK     0      -6.590  -8.464  -1.969  0.00  0.00    -0.776 OA
HETATM   50  H   UNK     0      -6.542  -8.996  -2.847  0.00  0.00     0.167 HD
ENDBRANCH  47  49
ENDBRANCH  46  47
ENDBRANCH  45  46
ENDBRANCH  11  45
BRANCH  18  51
HETATM   51  C   UNK     0     -14.163 -11.588  -6.340  0.00  0.00     0.051 C 
BRANCH  51  52
HETATM   52  C   UNK     0     -15.514 -11.481  -5.648  0.00  0.00     0.114 C 
BRANCH  52  53
HETATM   53  C   UNK     0     -16.119 -10.147  -5.828  0.00  0.00     0.139 C 
HETATM   54  O   UNK     0     -15.481  -9.246  -6.395  0.00  0.00    -0.650 OA
BRANCH  53  55
HETATM   55  O   UNK     0     -17.390  -9.909  -5.362  0.00  0.00    -0.776 OA
HETATM   56  H   UNK     0     -17.928 -10.522  -4.796  0.00  0.00     0.167 HD
ENDBRANCH  53  55
ENDBRANCH  52  53
ENDBRANCH  51  52
ENDBRANCH  18  51
TORSDOF 16
ENDMDL
MODEL 5
REMARK VINA RESULT:      -8.1     25.862     30.413
REMARK  16 active torsions:
REMARK  status: ('A' for Active; 'I' for Inactive)
REMARK    1  A    between atoms: C_6  and  C_7 
REMARK    2  A    between atoms: C_7  and  C_8 
REMARK    3  A    between atoms: C_8  and  C_9 
REMARK    4  A    between atoms: C_9  and  O_11 
REMARK    5  A    between atoms: C_16  and  C_17 
REMARK    6  A    between atoms: C_17  and  C_18 
REMARK    7  A    between atoms: C_18  and  C_19 
REMARK    8  A    between atoms: C_19  and  O_21 
REMARK    9  A    between atoms: C_28  and  C_29 
REMARK   10  A    between atoms: C_29  and  C_30 
REMARK   11  A    between atoms: C_30  and  C_31 
REMARK   12  A    between atoms: C_31  and  O_33 
REMARK   13  A    between atoms: C_42  and  C_43 
REMARK   14  A    between atoms: C_43  and  C_44 
REMARK   15  A    between atoms: C_44  and  C_45 
REMARK   16  A    between atoms: C_45  and  O_47 
ROOT
HETATM    1  C   UNK     0     -25.227  13.256   7.332  0.00  0.00     0.051 C 
HETATM    2  C   UNK     0     -24.181  12.636   8.236  0.00  0.00    -0.031 A 
HETATM    3  C   UNK     0     -24.309  12.162   9.532  0.00  0.00     0.021 A 
HETATM    4  N   UNK     0     -23.103  11.722   9.963  0.00  0.00    -0.361 N 
HETATM    5  C   UNK     0     -22.211  11.898   8.966  0.00  0.00     0.022 A 
HETATM    6  C   UNK     0     -22.851  12.470   7.872  0.00  0.00    -0.027 A 
HETATM    7  C   UNK     0     -20.771  11.495   8.895  0.00  0.00     0.115 C 
HETATM    8  C   UNK     0     -20.421  10.118   9.431  0.00  0.00     0.021 A 
HETATM    9  N   UNK     0     -21.144   8.989   9.370  0.00  0.00    -0.361 N 
HETATM   10  C   UNK     0     -20.485   8.032  10.058  0.00  0.00     0.022 A 
HETATM   11  C   UNK     0     -19.301   8.557  10.568  0.00  0.00    -0.027 A 
HETATM   12  C   UNK     0     -19.255   9.871  10.177  0.00  0.00    -0.031 A 
HETATM   13  C   UNK     0     -18.140  10.840  10.500  0.00  0.00     0.051 C 
HETATM   14  C   UNK     0     -20.968   6.606  10.306  0.00  0.00     0.115 C 
HETATM   15  C   UNK     0     -22.275   6.524  11.079  0.00  0.00     0.021 A 
HETATM   16  N   UNK     0     -23.464   7.057  10.740  0.00  0.00    -0.361 N 
HETATM   17  C   UNK     0     -24.343   6.822  11.716  0.00  0.00     0.022 A 
HETATM   18  C   UNK     0     -23.699   6.093  12.736  0.00  0.00    -0.027 A 
HETATM   19  C   UNK     0     -22.404   5.912  12.323  0.00  0.00    -0.031 A 
HETATM   20  C   UNK     0     -21.366   5.138  13.116  0.00  0.00     0.051 C 
HETATM   21  C   UNK     0     -25.782   7.266  11.856  0.00  0.00     0.115 C 
HETATM   22  C   UNK     0     -26.153   8.616  11.288  0.00  0.00     0.022 A 
HETATM   23  N   UNK     0     -25.452   9.756  11.330  0.00  0.00    -0.361 N 
HETATM   24  C   UNK     0     -26.088  10.673  10.574  0.00  0.00     0.021 A 
HETATM   25  C   UNK     0     -27.232  10.112  10.040  0.00  0.00    -0.031 A 
HETATM   26  C   UNK     0     -28.288  10.754   9.164  0.00  0.00     0.051 C 
HETATM   27  C   UNK     0     -27.296   8.796  10.483  0.00  0.00    -0.027 A 
HETATM   28  C   UNK     0     -25.631  12.083  10.242  0.00  0.00     0.115 C 
HETATM   29  H   UNK     0     -22.881  11.327  10.981  0.00  0.00     0.165 HD
HETATM   30  H   UNK     0     -22.095   8.850   8.800  0.00  0.00     0.165 HD
HETATM   31  H   UNK     0     -23.701   7.568   9.771  0.00  0.00     0.165 HD
HETATM   32  H   UNK     0     -24.522   9.937  11.931  0.00  0.00     0.165 HD
ENDROOT
BRANCH   6  33
HETATM   33  C   UNK     0     -22.302  12.869   6.525  0.00  0.00     0.051 C 
BRANCH  33  34
HETATM   34  C   UNK     0     -21.374  14.053   6.655  0.00  0.00     0.114 C 
BRANCH  34  35
HETATM   35  C   UNK     0     -20.115  13.714   5.932  0.00  0.00     0.139 C 
HETATM   36  O   UNK     0     -19.143  14.525   5.930  0.00  0.00    -0.650 OA
BRANCH  35  37
HETATM   37  O   UNK     0     -19.945  12.520   5.242  0.00  0.00    -0.776 OA
HETATM   38  H   UNK     0     -20.438  11.680   5.498  0.00  0.00     0.167 HD
ENDBRANCH  35  37
ENDBRANCH  34  35
ENDBRANCH  33  34
ENDBRANCH   6  33
BRANCH  27  39
HETATM   39  C   UNK     0     -28.434   7.890  10.169  0.00  0.00     0.051 C 
BRANCH  39  40
HETATM   40  C   UNK     0     -28.150   6.636   9.471  0.00  0.00     0.114 C 
BRANCH  40  41
HETATM   41  C   UNK     0     -27.853   5.410  10.178  0.00  0.00     0.139 C 
HETATM   42  O   UNK     0     -27.009   4.589   9.797  0.00  0.00    -0.650 OA
BRANCH  41  43
HETATM   43  O   UNK     0     -28.560   5.116  11.379  0.00  0.00    -0.776 OA
HETATM   44  H   UNK     0     -28.253   5.646  12.186  0.00  0.00     0.167 HD
ENDBRANCH  41  43
ENDBRANCH  40  41
ENDBRANCH  39  40
ENDBRANCH  27  39
BRANCH  11  45
HETATM   45  C   UNK     0     -18.243   7.870  11.389  0.00  0.00     0.051 C 
BRANCH  45  46
HETATM   46  C   UNK     0     -17.392   6.929  10.616  0.00  0.00     0.114 C 
BRANCH  46  47
HETATM   47  C   UNK     0     -17.487   5.599  11.283  0.00  0.00     0.139 C 
HETATM   48  O   UNK     0     -17.951   4.646  10.641  0.00  0.00    -0.650 OA
BRANCH  47  49
HETATM   49  O   UNK     0     -17.070   5.432  12.579  0.00  0.00    -0.776 OA
HETATM   50  H   UNK     0     -16.170   4.995  12.811  0.00  0.00     0.167 HD
ENDBRANCH  47  49
ENDBRANCH  46  47
ENDBRANCH  45  46
ENDBRANCH  11  45
BRANCH  18  51
HETATM   51  C   UNK     0     -24.290   5.579  14.022  0.00  0.00     0.051 C 
BRANCH  51  52
HETATM   52  C   UNK     0     -24.051   6.661  15.064  0.00  0.00     0.114 C 
BRANCH  52  53
HETATM   53  C   UNK     0     -23.684   6.091  16.375  0.00  0.00     0.139 C 
HETATM   54  O   UNK     0     -24.570   5.713  17.158  0.00  0.00    -0.650 OA
BRANCH  53  55
HETATM   55  O   UNK     0     -22.360   5.986  16.723  0.00  0.00    -0.776 OA
HETATM   56  H   UNK     0     -21.963   6.246  17.596  0.00  0.00     0.167 HD
ENDBRANCH  53  55
ENDBRANCH  52  53
ENDBRANCH  51  52
ENDBRANCH  18  51
TORSDOF 16
ENDMDL
MODEL 6
REMARK VINA RESULT:      -7.8      2.862      4.740
REMARK  16 active torsions:
REMARK  status: ('A' for Active; 'I' for Inactive)
REMARK    1  A    between atoms: C_6  and  C_7 
REMARK    2  A    between atoms: C_7  and  C_8 
REMARK    3  A    between atoms: C_8  and  C_9 
REMARK    4  A    between atoms: C_9  and  O_11 
REMARK    5  A    between atoms: C_16  and  C_17 
REMARK    6  A    between atoms: C_17  and  C_18 
REMARK    7  A    between atoms: C_18  and  C_19 
REMARK    8  A    between atoms: C_19  and  O_21 
REMARK    9  A    between atoms: C_28  and  C_29 
REMARK   10  A    between atoms: C_29  and  C_30 
REMARK   11  A    between atoms: C_30  and  C_31 
REMARK   12  A    between atoms: C_31  and  O_33 
REMARK   13  A    between atoms: C_42  and  C_43 
REMARK   14  A    between atoms: C_43  and  C_44 
REMARK   15  A    between atoms: C_44  and  C_45 
REMARK   16  A    between atoms: C_45  and  O_47 
ROOT
HETATM    1  C   UNK     0      -4.528 -13.447   0.236  0.00  0.00     0.051 C 
HETATM    2  C   UNK     0      -5.636 -12.985  -0.689  0.00  0.00    -0.031 A 
HETATM    3  C   UNK     0      -5.763 -13.148  -2.060  0.00  0.00     0.021 A 
HETATM    4  N   UNK     0      -6.902 -12.543  -2.472  0.00  0.00    -0.361 N 
HETATM    5  C   UNK     0      -7.509 -12.006  -1.393  0.00  0.00     0.022 A 
HETATM    6  C   UNK     0      -6.742 -12.262  -0.261  0.00  0.00    -0.027 A 
HETATM    7  C   UNK     0      -8.833 -11.316  -1.291  0.00  0.00     0.115 C 
HETATM    8  C   UNK     0      -9.986 -11.934  -2.062  0.00  0.00     0.021 A 
HETATM    9  N   UNK     0     -10.241 -13.233  -2.284  0.00  0.00    -0.361 N 
HETATM   10  C   UNK     0     -11.318 -13.315  -3.095  0.00  0.00     0.022 A 
HETATM   11  C   UNK     0     -11.773 -12.035  -3.395  0.00  0.00    -0.027 A 
HETATM   12  C   UNK     0     -10.939 -11.160  -2.747  0.00  0.00    -0.031 A 
HETATM   13  C   UNK     0     -11.055  -9.653  -2.782  0.00  0.00     0.051 C 
HETATM   14  C   UNK     0     -11.925 -14.596  -3.659  0.00  0.00     0.115 C 
HETATM   15  C   UNK     0     -10.972 -15.396  -4.534  0.00  0.00     0.021 A 
HETATM   16  N   UNK     0      -9.774 -15.905  -4.191  0.00  0.00    -0.361 N 
HETATM   17  C   UNK     0      -9.219 -16.479  -5.260  0.00  0.00     0.022 A 
HETATM   18  C   UNK     0     -10.102 -16.346  -6.350  0.00  0.00    -0.027 A 
HETATM   19  C   UNK     0     -11.197 -15.667  -5.882  0.00  0.00    -0.031 A 
HETATM   20  C   UNK     0     -12.413 -15.340  -6.728  0.00  0.00     0.051 C 
HETATM   21  C   UNK     0      -7.862 -17.126  -5.422  0.00  0.00     0.115 C 
HETATM   22  C   UNK     0      -6.715 -16.548  -4.627  0.00  0.00     0.022 A 
HETATM   23  N   UNK     0      -6.438 -15.260  -4.386  0.00  0.00    -0.361 N 
HETATM   24  C   UNK     0      -5.411 -15.203  -3.514  0.00  0.00     0.021 A 
HETATM   25  C   UNK     0      -5.010 -16.486  -3.194  0.00  0.00    -0.031 A 
HETATM   26  C   UNK     0      -3.877 -16.935  -2.294  0.00  0.00     0.051 C 
HETATM   27  C   UNK     0      -5.829 -17.364  -3.895  0.00  0.00    -0.027 A 
HETATM   28  C   UNK     0      -4.802 -13.968  -2.873  0.00  0.00     0.115 C 
HETATM   29  H   UNK     0      -7.250 -12.466  -3.529  0.00  0.00     0.165 HD
HETATM   30  H   UNK     0      -9.694 -14.095  -1.830  0.00  0.00     0.165 HD
HETATM   31  H   UNK     0      -9.331 -15.902  -3.161  0.00  0.00     0.165 HD
HETATM   32  H   UNK     0      -6.937 -14.377  -4.862  0.00  0.00     0.165 HD
ENDROOT
BRANCH   6  33
HETATM   33  C   UNK     0      -6.976 -11.873   1.177  0.00  0.00     0.051 C 
BRANCH  33  34
HETATM   34  C   UNK     0      -6.024 -10.779   1.597  0.00  0.00     0.114 C 
BRANCH  34  35
HETATM   35  C   UNK     0      -6.357  -9.565   0.796  0.00  0.00     0.139 C 
HETATM   36  O   UNK     0      -7.446  -8.951   0.994  0.00  0.00    -0.650 OA
BRANCH  35  37
HETATM   37  O   UNK     0      -5.511  -9.057  -0.181  0.00  0.00    -0.776 OA
HETATM   38  H   UNK     0      -4.843  -8.329   0.016  0.00  0.00     0.167 HD
ENDBRANCH  35  37
ENDBRANCH  34  35
ENDBRANCH  33  34
ENDBRANCH   6  33
BRANCH  27  39
HETATM   39  C   UNK     0      -5.653 -18.841  -3.859  0.00  0.00     0.051 C 
BRANCH  39  40
HETATM   40  C   UNK     0      -6.795 -19.668  -3.471  0.00  0.00     0.114 C 
BRANCH  40  41
HETATM   41  C   UNK     0      -6.634 -20.994  -2.918  0.00  0.00     0.139 C 
HETATM   42  O   UNK     0      -5.599 -21.663  -3.036  0.00  0.00    -0.650 OA
BRANCH  41  43
HETATM   43  O   UNK     0      -7.714 -21.578  -2.197  0.00  0.00    -0.776 OA
HETATM   44  H   UNK     0      -8.631 -21.253  -2.479  0.00  0.00     0.167 HD
ENDBRANCH  41  43
ENDBRANCH  40  41
ENDBRANCH  39  40
ENDBRANCH  27  39
BRANCH  11  45
HETATM   45  C   UNK     0     -12.943 -11.628  -4.250  0.00  0.00     0.051 C 
BRANCH  45  46
HETATM   46  C   UNK     0     -12.800 -11.988  -5.684  0.00  0.00     0.114 C 
BRANCH  46  47
HETATM   47  C   UNK     0     -13.888 -11.288  -6.425  0.00  0.00     0.139 C 
HETATM   48  O   UNK     0     -15.064 -11.542  -6.132  0.00  0.00    -0.650 OA
BRANCH  47  49
HETATM   49  O   UNK     0     -13.594 -10.382  -7.413  0.00  0.00    -0.776 OA
HETATM   50  H   UNK     0     -12.956  -9.593  -7.257  0.00  0.00     0.167 HD
ENDBRANCH  47  49
ENDBRANCH  46  47
ENDBRANCH  45  46
ENDBRANCH  11  45
BRANCH  18  51
HETATM   51  C   UNK     0      -9.921 -16.856  -7.756  0.00  0.00     0.051 C 
BRANCH  51  52
HETATM   52  C   UNK     0     -10.836 -18.065  -7.892  0.00  0.00     0.114 C 
BRANCH  52  53
HETATM   53  C   UNK     0     -10.295 -19.059  -8.838  0.00  0.00     0.139 C 
HETATM   54  O   UNK     0      -9.576 -19.983  -8.425  0.00  0.00    -0.650 OA
BRANCH  53  55
HETATM   55  O   UNK     0     -10.589 -18.955 -10.176  0.00  0.00    -0.776 OA
HETATM   56  H   UNK     0     -10.953 -19.677 -10.752  0.00  0.00     0.167 HD
ENDBRANCH  53  55
ENDBRANCH  52  53
ENDBRANCH  51  52
ENDBRANCH  18  51
TORSDOF 16
ENDMDL
MODEL 7
REMARK VINA RESULT:      -7.8     26.727     30.306
REMARK  16 active torsions:
REMARK  status: ('A' for Active; 'I' for Inactive)
REMARK    1  A    between atoms: C_6  and  C_7 
REMARK    2  A    between atoms: C_7  and  C_8 
REMARK    3  A    between atoms: C_8  and  C_9 
REMARK    4  A    between atoms: C_9  and  O_11 
REMARK    5  A    between atoms: C_16  and  C_17 
REMARK    6  A    between atoms: C_17  and  C_18 
REMARK    7  A    between atoms: C_18  and  C_19 
REMARK    8  A    between atoms: C_19  and  O_21 
REMARK    9  A    between atoms: C_28  and  C_29 
REMARK   10  A    between atoms: C_29  and  C_30 
REMARK   11  A    between atoms: C_30  and  C_31 
REMARK   12  A    between atoms: C_31  and  O_33 
REMARK   13  A    between atoms: C_42  and  C_43 
REMARK   14  A    between atoms: C_43  and  C_44 
REMARK   15  A    between atoms: C_44  and  C_45 
REMARK   16  A    between atoms: C_45  and  O_47 
ROOT
HETATM    1  C   UNK     0     -16.987   8.032  10.602  0.00  0.00     0.051 C 
HETATM    2  C   UNK     0     -17.892   8.811   9.669  0.00  0.00    -0.031 A 
HETATM    3  C   UNK     0     -19.018   8.389   8.979  0.00  0.00     0.021 A 
HETATM    4  N   UNK     0     -19.493   9.418   8.239  0.00  0.00    -0.361 N 
HETATM    5  C   UNK     0     -18.700  10.489   8.448  0.00  0.00     0.022 A 
HETATM    6  C   UNK     0     -17.686  10.143   9.336  0.00  0.00    -0.027 A 
HETATM    7  C   UNK     0     -18.842  11.892   7.945  0.00  0.00     0.115 C 
HETATM    8  C   UNK     0     -20.238  12.487   7.971  0.00  0.00     0.021 A 
HETATM    9  N   UNK     0     -21.211  12.300   8.876  0.00  0.00    -0.361 N 
HETATM   10  C   UNK     0     -22.313  12.951   8.449  0.00  0.00     0.022 A 
HETATM   11  C   UNK     0     -22.041  13.583   7.239  0.00  0.00    -0.027 A 
HETATM   12  C   UNK     0     -20.735  13.295   6.932  0.00  0.00    -0.031 A 
HETATM   13  C   UNK     0     -20.000  13.778   5.702  0.00  0.00     0.051 C 
HETATM   14  C   UNK     0     -23.677  12.960   9.133  0.00  0.00     0.115 C 
HETATM   15  C   UNK     0     -24.311  11.584   9.260  0.00  0.00     0.021 A 
HETATM   16  N   UNK     0     -23.809  10.502   9.883  0.00  0.00    -0.361 N 
HETATM   17  C   UNK     0     -24.638   9.470   9.708  0.00  0.00     0.022 A 
HETATM   18  C   UNK     0     -25.738   9.904   8.942  0.00  0.00    -0.027 A 
HETATM   19  C   UNK     0     -25.523  11.230   8.669  0.00  0.00    -0.031 A 
HETATM   20  C   UNK     0     -26.493  12.100   7.891  0.00  0.00     0.051 C 
HETATM   21  C   UNK     0     -24.500   8.028  10.141  0.00  0.00     0.115 C 
HETATM   22  C   UNK     0     -23.110   7.436  10.162  0.00  0.00     0.022 A 
HETATM   23  N   UNK     0     -22.121   7.609   9.276  0.00  0.00    -0.361 N 
HETATM   24  C   UNK     0     -21.011   7.017   9.761  0.00  0.00     0.021 A 
HETATM   25  C   UNK     0     -21.295   6.440  10.984  0.00  0.00    -0.031 A 
HETATM   26  C   UNK     0     -20.389   5.633  11.891  0.00  0.00     0.051 C 
HETATM   27  C   UNK     0     -22.633   6.695  11.262  0.00  0.00    -0.027 A 
HETATM   28  C   UNK     0     -19.616   7.022   9.159  0.00  0.00     0.115 C 
HETATM   29  H   UNK     0     -20.362   9.370   7.542  0.00  0.00     0.165 HD
HETATM   30  H   UNK     0     -21.107  11.750   9.844  0.00  0.00     0.165 HD
HETATM   31  H   UNK     0     -22.873  10.476  10.500  0.00  0.00     0.165 HD
HETATM   32  H   UNK     0     -22.208   8.114   8.279  0.00  0.00     0.165 HD
ENDROOT
BRANCH   6  33
HETATM   33  C   UNK     0     -16.551  10.972   9.882  0.00  0.00     0.051 C 
BRANCH  33  34
HETATM   34  C   UNK     0     -15.349  10.900   8.970  0.00  0.00     0.114 C 
BRANCH  34  35
HETATM   35  C   UNK     0     -15.063  12.286   8.500  0.00  0.00     0.139 C 
HETATM   36  O   UNK     0     -15.761  13.257   8.915  0.00  0.00    -0.650 OA
BRANCH  35  37
HETATM   37  O   UNK     0     -14.040  12.578   7.606  0.00  0.00    -0.776 OA
HETATM   38  H   UNK     0     -13.770  13.524   7.393  0.00  0.00     0.167 HD
ENDBRANCH  35  37
ENDBRANCH  34  35
ENDBRANCH  33  34
ENDBRANCH   6  33
BRANCH  27  39
HETATM   39  C   UNK     0     -23.325   6.166  12.469  0.00  0.00     0.051 C 
BRANCH  39  40
HETATM   40  C   UNK     0     -24.234   5.032  12.307  0.00  0.00     0.114 C 
BRANCH  40  41
HETATM   41  C   UNK     0     -25.507   5.155  11.633  0.00  0.00     0.139 C 
HETATM   42  O   UNK     0     -26.501   5.690  12.143  0.00  0.00    -0.650 OA
BRANCH  41  43
HETATM   43  O   UNK     0     -25.643   4.640  10.313  0.00  0.00    -0.776 OA
HETATM   44  H   UNK     0     -26.601   4.497  10.016  0.00  0.00     0.167 HD
ENDBRANCH  41  43
ENDBRANCH  40  41
ENDBRANCH  39  40
ENDBRANCH  27  39
BRANCH  11  45
HETATM   45  C   UNK     0     -22.953  14.429   6.392  0.00  0.00     0.051 C 
BRANCH  45  46
HETATM   46  C   UNK     0     -23.270  15.755   6.981  0.00  0.00     0.114 C 
BRANCH  46  47
HETATM   47  C   UNK     0     -24.727  15.995   6.772  0.00  0.00     0.139 C 
HETATM   48  O   UNK     0     -25.521  15.609   7.642  0.00  0.00    -0.650 OA
BRANCH  47  49
HETATM   49  O   UNK     0     -25.180  16.626   5.642  0.00  0.00    -0.776 OA
HETATM   50  H   UNK     0     -24.544  17.097   4.988  0.00  0.00     0.167 HD
ENDBRANCH  47  49
ENDBRANCH  46  47
ENDBRANCH  45  46
ENDBRANCH  11  45
BRANCH  18  51
HETATM   51  C   UNK     0     -26.940   9.103   8.512  0.00  0.00     0.051 C 
BRANCH  51  52
HETATM   52  C   UNK     0     -27.950   9.209   9.645  0.00  0.00     0.114 C 
BRANCH  52  53
HETATM   53  C   UNK     0     -28.391   7.881  10.114  0.00  0.00     0.139 C 
HETATM   54  O   UNK     0     -29.260   7.791  10.996  0.00  0.00    -0.650 OA
BRANCH  53  55
HETATM   55  O   UNK     0     -27.833   6.749   9.572  0.00  0.00    -0.776 OA
HETATM   56  H   UNK     0     -28.177   6.247   8.787  0.00  0.00     0.167 HD
ENDBRANCH  53  55
ENDBRANCH  52  53
ENDBRANCH  51  52
ENDBRANCH  18  51
TORSDOF 16
ENDMDL
MODEL 8
REMARK VINA RESULT:      -7.7     25.913     29.178
REMARK  16 active torsions:
REMARK  status: ('A' for Active; 'I' for Inactive)
REMARK    1  A    between atoms: C_6  and  C_7 
REMARK    2  A    between atoms: C_7  and  C_8 
REMARK    3  A    between atoms: C_8  and  C_9 
REMARK    4  A    between atoms: C_9  and  O_11 
REMARK    5  A    between atoms: C_16  and  C_17 
REMARK    6  A    between atoms: C_17  and  C_18 
REMARK    7  A    between atoms: C_18  and  C_19 
REMARK    8  A    between atoms: C_19  and  O_21 
REMARK    9  A    between atoms: C_28  and  C_29 
REMARK   10  A    between atoms: C_29  and  C_30 
REMARK   11  A    between atoms: C_30  and  C_31 
REMARK   12  A    between atoms: C_31  and  O_33 
REMARK   13  A    between atoms: C_42  and  C_43 
REMARK   14  A    between atoms: C_43  and  C_44 
REMARK   15  A    between atoms: C_44  and  C_45 
REMARK   16  A    between atoms: C_45  and  O_47 
ROOT
HETATM    1  C   UNK     0     -22.441   5.021  11.849  0.00  0.00     0.051 C 
HETATM    2  C   UNK     0     -22.589   6.497  11.539  0.00  0.00    -0.031 A 
HETATM    3  C   UNK     0     -21.746   7.551  11.853  0.00  0.00     0.021 A 
HETATM    4  N   UNK     0     -22.295   8.704  11.402  0.00  0.00    -0.361 N 
HETATM    5  C   UNK     0     -23.465   8.407  10.801  0.00  0.00     0.022 A 
HETATM    6  C   UNK     0     -23.681   7.035  10.870  0.00  0.00    -0.027 A 
HETATM    7  C   UNK     0     -24.409   9.302  10.061  0.00  0.00     0.115 C 
HETATM    8  C   UNK     0     -23.788  10.322   9.123  0.00  0.00     0.021 A 
HETATM    9  N   UNK     0     -22.694  10.195   8.356  0.00  0.00    -0.361 N 
HETATM   10  C   UNK     0     -22.460  11.383   7.759  0.00  0.00     0.022 A 
HETATM   11  C   UNK     0     -23.437  12.297   8.143  0.00  0.00    -0.027 A 
HETATM   12  C   UNK     0     -24.277  11.635   9.002  0.00  0.00    -0.031 A 
HETATM   13  C   UNK     0     -25.493  12.235   9.671  0.00  0.00     0.051 C 
HETATM   14  C   UNK     0     -21.283  11.717   6.848  0.00  0.00     0.115 C 
HETATM   15  C   UNK     0     -19.926  11.577   7.519  0.00  0.00     0.021 A 
HETATM   16  N   UNK     0     -19.401  10.476   8.088  0.00  0.00    -0.361 N 
HETATM   17  C   UNK     0     -18.219  10.782   8.627  0.00  0.00     0.022 A 
HETATM   18  C   UNK     0     -17.957  12.146   8.391  0.00  0.00    -0.027 A 
HETATM   19  C   UNK     0     -19.033  12.632   7.694  0.00  0.00    -0.031 A 
HETATM   20  C   UNK     0     -19.143  14.064   7.202  0.00  0.00     0.051 C 
HETATM   21  C   UNK     0     -17.269   9.928   9.436  0.00  0.00     0.115 C 
HETATM   22  C   UNK     0     -17.872   8.880  10.341  0.00  0.00     0.022 A 
HETATM   23  N   UNK     0     -18.963   8.977  11.112  0.00  0.00    -0.361 N 
HETATM   24  C   UNK     0     -19.221   7.761  11.636  0.00  0.00     0.021 A 
HETATM   25  C   UNK     0     -18.267   6.862  11.200  0.00  0.00    -0.031 A 
HETATM   26  C   UNK     0     -18.111   5.396  11.546  0.00  0.00     0.051 C 
HETATM   27  C   UNK     0     -17.393   7.554  10.370  0.00  0.00    -0.027 A 
HETATM   28  C   UNK     0     -20.403   7.353  12.498  0.00  0.00     0.115 C 
HETATM   29  H   UNK     0     -21.870   9.724  11.548  0.00  0.00     0.165 HD
HETATM   30  H   UNK     0     -22.112   9.254   8.196  0.00  0.00     0.165 HD
HETATM   31  H   UNK     0     -19.851   9.449   8.067  0.00  0.00     0.165 HD
HETATM   32  H   UNK     0     -19.537   9.915  11.328  0.00  0.00     0.165 HD
ENDROOT
BRANCH   6  33
HETATM   33  C   UNK     0     -24.834   6.207  10.359  0.00  0.00     0.051 C 
BRANCH  33  34
HETATM   34  C   UNK     0     -25.959   6.178  11.365  0.00  0.00     0.114 C 
BRANCH  34  35
HETATM   35  C   UNK     0     -27.045   5.329  10.796  0.00  0.00     0.139 C 
HETATM   36  O   UNK     0     -26.800   4.540   9.837  0.00  0.00    -0.650 OA
BRANCH  35  37
HETATM   37  O   UNK     0     -28.348   5.357  11.277  0.00  0.00    -0.776 OA
HETATM   38  H   UNK     0     -29.013   4.631  11.061  0.00  0.00     0.167 HD
ENDBRANCH  35  37
ENDBRANCH  34  35
ENDBRANCH  33  34
ENDBRANCH   6  33
BRANCH  27  39
HETATM   39  C   UNK     0     -16.186   6.930   9.764  0.00  0.00     0.051 C 
BRANCH  39  40
HETATM   40  C   UNK     0     -14.903   7.091  10.448  0.00  0.00     0.114 C 
BRANCH  40  41
HETATM   41  C   UNK     0     -14.110   8.294  10.326  0.00  0.00     0.139 C 
HETATM   42  O   UNK     0     -14.097   9.194  11.176  0.00  0.00    -0.650 OA
BRANCH  41  43
HETATM   43  O   UNK     0     -13.294   8.469   9.172  0.00  0.00    -0.776 OA
HETATM   44  H   UNK     0     -12.720   9.304   9.188  0.00  0.00     0.167 HD
ENDBRANCH  41  43
ENDBRANCH  40  41
ENDBRANCH  39  40
ENDBRANCH  27  39
BRANCH  11  45
HETATM   45  C   UNK     0     -23.594  13.736   7.731  0.00  0.00     0.051 C 
BRANCH  45  46
HETATM   46  C   UNK     0     -24.480  13.936   6.555  0.00  0.00     0.114 C 
BRANCH  46  47
HETATM   47  C   UNK     0     -25.147  15.259   6.724  0.00  0.00     0.139 C 
HETATM   48  O   UNK     0     -25.428  15.638   7.870  0.00  0.00    -0.650 OA
BRANCH  47  49
HETATM   49  O   UNK     0     -25.444  16.040   5.636  0.00  0.00    -0.776 OA
HETATM   50  H   UNK     0     -26.373  16.457   5.502  0.00  0.00     0.167 HD
ENDBRANCH  47  49
ENDBRANCH  46  47
ENDBRANCH  45  46
ENDBRANCH  11  45
BRANCH  18  51
HETATM   51  C   UNK     0     -16.738  12.938   8.788  0.00  0.00     0.051 C 
BRANCH  51  52
HETATM   52  C   UNK     0     -15.739  12.780   7.652  0.00  0.00     0.114 C 
BRANCH  52  53
HETATM   53  C   UNK     0     -14.429  12.302   8.135  0.00  0.00     0.139 C 
HETATM   54  O   UNK     0     -14.193  11.084   8.189  0.00  0.00    -0.650 OA
BRANCH  53  55
HETATM   55  O   UNK     0     -13.476  13.210   8.527  0.00  0.00    -0.776 OA
HETATM   56  H   UNK     0     -13.563  13.864   9.269  0.00  0.00     0.167 HD
ENDBRANCH  53  55
ENDBRANCH  52  53
ENDBRANCH  51  52
ENDBRANCH  18  51
TORSDOF 16
ENDMDL
MODEL 9
REMARK VINA RESULT:      -7.7     26.340     30.425
REMARK  16 active torsions:
REMARK  status: ('A' for Active; 'I' for Inactive)
REMARK    1  A    between atoms: C_6  and  C_7 
REMARK    2  A    between atoms: C_7  and  C_8 
REMARK    3  A    between atoms: C_8  and  C_9 
REMARK    4  A    between atoms: C_9  and  O_11 
REMARK    5  A    between atoms: C_16  and  C_17 
REMARK    6  A    between atoms: C_17  and  C_18 
REMARK    7  A    between atoms: C_18  and  C_19 
REMARK    8  A    between atoms: C_19  and  O_21 
REMARK    9  A    between atoms: C_28  and  C_29 
REMARK   10  A    between atoms: C_29  and  C_30 
REMARK   11  A    between atoms: C_30  and  C_31 
REMARK   12  A    between atoms: C_31  and  O_33 
REMARK   13  A    between atoms: C_42  and  C_43 
REMARK   14  A    between atoms: C_43  and  C_44 
REMARK   15  A    between atoms: C_44  and  C_45 
REMARK   16  A    between atoms: C_45  and  O_47 
ROOT
HETATM    1  C   UNK     0     -26.437  12.782   7.917  0.00  0.00     0.051 C 
HETATM    2  C   UNK     0     -25.112  12.444   8.570  0.00  0.00    -0.031 A 
HETATM    3  C   UNK     0     -24.862  11.766   9.753  0.00  0.00     0.021 A 
HETATM    4  N   UNK     0     -23.525  11.722   9.962  0.00  0.00    -0.361 N 
HETATM    5  C   UNK     0     -22.917  12.349   8.934  0.00  0.00     0.022 A 
HETATM    6  C   UNK     0     -23.881  12.815   8.046  0.00  0.00    -0.027 A 
HETATM    7  C   UNK     0     -21.457  12.496   8.638  0.00  0.00     0.115 C 
HETATM    8  C   UNK     0     -20.591  11.268   8.853  0.00  0.00     0.021 A 
HETATM    9  N   UNK     0     -20.901   9.979   8.644  0.00  0.00    -0.361 N 
HETATM   10  C   UNK     0     -19.860   9.225   9.059  0.00  0.00     0.022 A 
HETATM   11  C   UNK     0     -18.849  10.052   9.539  0.00  0.00    -0.027 A 
HETATM   12  C   UNK     0     -19.302  11.340   9.412  0.00  0.00    -0.031 A 
HETATM   13  C   UNK     0     -18.531  12.580   9.805  0.00  0.00     0.051 C 
HETATM   14  C   UNK     0     -19.800   7.700   9.068  0.00  0.00     0.115 C 
HETATM   15  C   UNK     0     -20.861   7.047   9.939  0.00  0.00     0.021 A 
HETATM   16  N   UNK     0     -22.197   7.169   9.835  0.00  0.00    -0.361 N 
HETATM   17  C   UNK     0     -22.778   6.495  10.830  0.00  0.00     0.022 A 
HETATM   18  C   UNK     0     -21.771   5.897  11.614  0.00  0.00    -0.027 A 
HETATM   19  C   UNK     0     -20.575   6.249  11.044  0.00  0.00    -0.031 A 
HETATM   20  C   UNK     0     -19.226   5.783  11.559  0.00  0.00     0.051 C 
HETATM   21  C   UNK     0     -24.238   6.377  11.202  0.00  0.00     0.115 C 
HETATM   22  C   UNK     0     -25.122   7.577  10.952  0.00  0.00     0.022 A 
HETATM   23  N   UNK     0     -24.838   8.871  11.147  0.00  0.00    -0.361 N 
HETATM   24  C   UNK     0     -25.855   9.606  10.656  0.00  0.00     0.021 A 
HETATM   25  C   UNK     0     -26.823   8.765  10.141  0.00  0.00    -0.031 A 
HETATM   26  C   UNK     0     -28.159   9.115   9.521  0.00  0.00     0.051 C 
HETATM   27  C   UNK     0     -26.376   7.461  10.319  0.00  0.00    -0.027 A 
HETATM   28  C   UNK     0     -25.949  11.120  10.564  0.00  0.00     0.115 C 
HETATM   29  H   UNK     0     -23.022  11.283  10.855  0.00  0.00     0.165 HD
HETATM   30  H   UNK     0     -21.833   9.600   8.158  0.00  0.00     0.165 HD
HETATM   31  H   UNK     0     -22.745   7.703   9.016  0.00  0.00     0.165 HD
HETATM   32  H   UNK     0     -23.935   9.277  11.673  0.00  0.00     0.165 HD
ENDROOT
BRANCH   6  33
HETATM   33  C   UNK     0     -23.722  13.579   6.756  0.00  0.00     0.051 C 
BRANCH  33  34
HETATM   34  C   UNK     0     -23.384  15.026   7.028  0.00  0.00     0.114 C 
BRANCH  34  35
HETATM   35  C   UNK     0     -24.649  15.808   6.920  0.00  0.00     0.139 C 
HETATM   36  O   UNK     0     -25.257  16.185   7.964  0.00  0.00    -0.650 OA
BRANCH  35  37
HETATM   37  O   UNK     0     -25.212  16.157   5.698  0.00  0.00    -0.776 OA
HETATM   38  H   UNK     0     -26.176  15.963   5.478  0.00  0.00     0.167 HD
ENDBRANCH  35  37
ENDBRANCH  34  35
ENDBRANCH  33  34
ENDBRANCH   6  33
BRANCH  27  39
HETATM   39  C   UNK     0     -27.187   6.268   9.951  0.00  0.00     0.051 C 
BRANCH  39  40
HETATM   40  C   UNK     0     -27.831   5.509  11.023  0.00  0.00     0.114 C 
BRANCH  40  41
HETATM   41  C   UNK     0     -28.065   6.073  12.333  0.00  0.00     0.139 C 
HETATM   42  O   UNK     0     -29.091   6.696  12.636  0.00  0.00    -0.650 OA
BRANCH  41  43
HETATM   43  O   UNK     0     -27.073   5.911  13.342  0.00  0.00    -0.776 OA
HETATM   44  H   UNK     0     -27.327   5.265  14.080  0.00  0.00     0.167 HD
ENDBRANCH  41  43
ENDBRANCH  40  41
ENDBRANCH  39  40
ENDBRANCH  27  39
BRANCH  11  45
HETATM   45  C   UNK     0     -17.504   9.668  10.095  0.00  0.00     0.051 C 
BRANCH  45  46
HETATM   46  C   UNK     0     -16.480   9.379   9.059  0.00  0.00     0.114 C 
BRANCH  46  47
HETATM   47  C   UNK     0     -15.768   8.136   9.476  0.00  0.00     0.139 C 
HETATM   48  O   UNK     0     -16.380   7.305  10.161  0.00  0.00    -0.650 OA
BRANCH  47  49
HETATM   49  O   UNK     0     -14.464   7.918   9.112  0.00  0.00    -0.776 OA
HETATM   50  H   UNK     0     -14.016   8.439   8.349  0.00  0.00     0.167 HD
ENDBRANCH  47  49
ENDBRANCH  46  47
ENDBRANCH  45  46
ENDBRANCH  11  45
BRANCH  18  51
HETATM   51  C   UNK     0     -21.941   5.020  12.828  0.00  0.00     0.051 C 
BRANCH  51  52
HETATM   52  C   UNK     0     -21.836   5.939  14.036  0.00  0.00     0.114 C 
BRANCH  52  53
HETATM   53  C   UNK     0     -22.987   5.783  14.946  0.00  0.00     0.139 C 
HETATM   54  O   UNK     0     -24.144   5.841  14.500  0.00  0.00    -0.650 OA
BRANCH  53  55
HETATM   55  O   UNK     0     -22.770   5.579  16.287  0.00  0.00    -0.776 OA
HETATM   56  H   UNK     0     -23.333   5.923  17.029  0.00  0.00     0.167 HD
ENDBRANCH  53  55
ENDBRANCH  52  53
ENDBRANCH  51  52
ENDBRANCH  18  51
TORSDOF 16
ENDMDL
MODEL 10
REMARK VINA RESULT:      -7.6     24.572     30.064
REMARK  16 active torsions:
REMARK  status: ('A' for Active; 'I' for Inactive)
REMARK    1  A    between atoms: C_6  and  C_7 
REMARK    2  A    between atoms: C_7  and  C_8 
REMARK    3  A    between atoms: C_8  and  C_9 
REMARK    4  A    between atoms: C_9  and  O_11 
REMARK    5  A    between atoms: C_16  and  C_17 
REMARK    6  A    between atoms: C_17  and  C_18 
REMARK    7  A    between atoms: C_18  and  C_19 
REMARK    8  A    between atoms: C_19  and  O_21 
REMARK    9  A    between atoms: C_28  and  C_29 
REMARK   10  A    between atoms: C_29  and  C_30 
REMARK   11  A    between atoms: C_30  and  C_31 
REMARK   12  A    between atoms: C_31  and  O_33 
REMARK   13  A    between atoms: C_42  and  C_43 
REMARK   14  A    between atoms: C_43  and  C_44 
REMARK   15  A    between atoms: C_44  and  C_45 
REMARK   16  A    between atoms: C_45  and  O_47 
ROOT
HETATM    1  C   UNK     0     -16.534   8.679   9.468  0.00  0.00     0.051 C 
HETATM    2  C   UNK     0     -17.725   8.373  10.352  0.00  0.00    -0.031 A 
HETATM    3  C   UNK     0     -18.684   9.233  10.865  0.00  0.00     0.021 A 
HETATM    4  N   UNK     0     -19.547   8.525  11.632  0.00  0.00    -0.361 N 
HETATM    5  C   UNK     0     -19.164   7.232  11.613  0.00  0.00     0.022 A 
HETATM    6  C   UNK     0     -18.026   7.102  10.824  0.00  0.00    -0.027 A 
HETATM    7  C   UNK     0     -19.827   6.034  12.217  0.00  0.00     0.115 C 
HETATM    8  C   UNK     0     -21.337   5.949  12.080  0.00  0.00     0.021 A 
HETATM    9  N   UNK     0     -22.106   6.341  11.053  0.00  0.00    -0.361 N 
HETATM   10  C   UNK     0     -23.397   6.160  11.404  0.00  0.00     0.022 A 
HETATM   11  C   UNK     0     -23.461   5.627  12.688  0.00  0.00    -0.027 A 
HETATM   12  C   UNK     0     -22.166   5.491  13.120  0.00  0.00    -0.031 A 
HETATM   13  C   UNK     0     -21.746   4.943  14.465  0.00  0.00     0.051 C 
HETATM   14  C   UNK     0     -24.619   6.529  10.567  0.00  0.00     0.115 C 
HETATM   15  C   UNK     0     -24.720   8.012  10.246  0.00  0.00     0.021 A 
HETATM   16  N   UNK     0     -23.823   8.774   9.594  0.00  0.00    -0.361 N 
HETATM   17  C   UNK     0     -24.250  10.038   9.578  0.00  0.00     0.022 A 
HETATM   18  C   UNK     0     -25.490  10.101  10.244  0.00  0.00    -0.027 A 
HETATM   19  C   UNK     0     -25.774   8.825  10.657  0.00  0.00    -0.031 A 
HETATM   20  C   UNK     0     -27.046   8.438  11.389  0.00  0.00     0.051 C 
HETATM   21  C   UNK     0     -23.583  11.283   9.039  0.00  0.00     0.115 C 
HETATM   22  C   UNK     0     -22.077  11.362   9.129  0.00  0.00     0.022 A 
HETATM   23  N   UNK     0     -21.284  10.975  10.137  0.00  0.00    -0.361 N 
HETATM   24  C   UNK     0     -20.002  11.092   9.737  0.00  0.00     0.021 A 
HETATM   25  C   UNK     0     -19.968  11.575   8.443  0.00  0.00    -0.031 A 
HETATM   26  C   UNK     0     -18.768  11.909   7.581  0.00  0.00     0.051 C 
HETATM   27  C   UNK     0     -21.284  11.756   8.032  0.00  0.00    -0.027 A 
HETATM   28  C   UNK     0     -18.750  10.688  10.497  0.00  0.00     0.115 C 
HETATM   29  H   UNK     0     -20.397   8.951  12.214  0.00  0.00     0.165 HD
HETATM   30  H   UNK     0     -21.740   6.700  10.060  0.00  0.00     0.165 HD
HETATM   31  H   UNK     0     -22.891   8.404   9.091  0.00  0.00     0.165 HD
HETATM   32  H   UNK     0     -21.622  10.657  11.158  0.00  0.00     0.165 HD
ENDROOT
BRANCH   6  33
HETATM   33  C   UNK     0     -17.212   5.877  10.490  0.00  0.00     0.051 C 
BRANCH  33  34
HETATM   34  C   UNK     0     -16.057   5.724  11.451  0.00  0.00     0.114 C 
BRANCH  34  35
HETATM   35  C   UNK     0     -14.996   4.942  10.753  0.00  0.00     0.139 C 
HETATM   36  O   UNK     0     -14.749   5.154   9.530  0.00  0.00    -0.650 OA
BRANCH  35  37
HETATM   37  O   UNK     0     -14.241   3.967  11.393  0.00  0.00    -0.776 OA
HETATM   38  H   UNK     0     -13.973   3.112  10.934  0.00  0.00     0.167 HD
ENDBRANCH  35  37
ENDBRANCH  34  35
ENDBRANCH  33  34
ENDBRANCH   6  33
BRANCH  27  39
HETATM   39  C   UNK     0     -21.648  12.335   6.711  0.00  0.00     0.051 C 
BRANCH  39  40
HETATM   40  C   UNK     0     -21.955  13.763   6.639  0.00  0.00     0.114 C 
BRANCH  40  41
HETATM   41  C   UNK     0     -23.232  14.299   7.052  0.00  0.00     0.139 C 
HETATM   42  O   UNK     0     -24.317  13.897   6.610  0.00  0.00    -0.650 OA
BRANCH  41  43
HETATM   43  O   UNK     0     -23.264  15.346   8.017  0.00  0.00    -0.776 OA
HETATM   44  H   UNK     0     -22.717  16.161   7.768  0.00  0.00     0.167 HD
ENDBRANCH  41  43
ENDBRANCH  40  41
ENDBRANCH  39  40
ENDBRANCH  27  39
BRANCH  11  45
HETATM   45  C   UNK     0     -24.676   5.251  13.493  0.00  0.00     0.051 C 
BRANCH  45  46
HETATM   46  C   UNK     0     -25.187   6.341  14.363  0.00  0.00     0.114 C 
BRANCH  46  47
HETATM   47  C   UNK     0     -25.611   5.716  15.649  0.00  0.00     0.139 C 
HETATM   48  O   UNK     0     -24.802   5.682  16.586  0.00  0.00    -0.650 OA
BRANCH  47  49
HETATM   49  O   UNK     0     -26.870   5.190  15.792  0.00  0.00    -0.776 OA
HETATM   50  H   UNK     0     -27.054   4.371  16.385  0.00  0.00     0.167 HD
ENDBRANCH  47  49
ENDBRANCH  46  47
ENDBRANCH  45  46
ENDBRANCH  11  45
BRANCH  18  51
HETATM   51  C   UNK     0     -26.367  11.308  10.457  0.00  0.00     0.051 C 
BRANCH  51  52
HETATM   52  C   UNK     0     -27.532  11.164   9.490  0.00  0.00     0.114 C 
BRANCH  52  53
HETATM   53  C   UNK     0     -27.087  11.207   8.084  0.00  0.00     0.139 C 
HETATM   54  O   UNK     0     -27.107  10.175   7.394  0.00  0.00    -0.650 OA
BRANCH  53  55
HETATM   55  O   UNK     0     -26.649  12.392   7.545  0.00  0.00    -0.776 OA
HETATM   56  H   UNK     0     -25.966  12.492   6.831  0.00  0.00     0.167 HD
ENDBRANCH  53  55
ENDBRANCH  52  53
ENDBRANCH  51  52
ENDBRANCH  18  51
TORSDOF 16
ENDMDL
MODEL 11
REMARK VINA RESULT:      -7.5     23.334     28.542
REMARK  16 active torsions:
REMARK  status: ('A' for Active; 'I' for Inactive)
REMARK    1  A    between atoms: C_6  and  C_7 
REMARK    2  A    between atoms: C_7  and  C_8 
REMARK    3  A    between atoms: C_8  and  C_9 
REMARK    4  A    between atoms: C_9  and  O_11 
REMARK    5  A    between atoms: C_16  and  C_17 
REMARK    6  A    between atoms: C_17  and  C_18 
REMARK    7  A    between atoms: C_18  and  C_19 
REMARK    8  A    between atoms: C_19  and  O_21 
REMARK    9  A    between atoms: C_28  and  C_29 
REMARK   10  A    between atoms: C_29  and  C_30 
REMARK   11  A    between atoms: C_30  and  C_31 
REMARK   12  A    between atoms: C_31  and  O_33 
REMARK   13  A    between atoms: C_42  and  C_43 
REMARK   14  A    between atoms: C_43  and  C_44 
REMARK   15  A    between atoms: C_44  and  C_45 
REMARK   16  A    between atoms: C_45  and  O_47 
ROOT
HETATM    1  C   UNK     0     -23.779   8.241  11.090  0.00  0.00     0.051 C 
HETATM    2  C   UNK     0     -22.421   7.691  10.701  0.00  0.00    -0.031 A 
HETATM    3  C   UNK     0     -21.608   8.031   9.632  0.00  0.00     0.021 A 
HETATM    4  N   UNK     0     -20.496   7.258   9.659  0.00  0.00    -0.361 N 
HETATM    5  C   UNK     0     -20.579   6.439  10.728  0.00  0.00     0.022 A 
HETATM    6  C   UNK     0     -21.773   6.682  11.400  0.00  0.00    -0.027 A 
HETATM    7  C   UNK     0     -19.577   5.463  11.259  0.00  0.00     0.115 C 
HETATM    8  C   UNK     0     -18.129   5.919  11.287  0.00  0.00     0.021 A 
HETATM    9  N   UNK     0     -17.644   7.146  11.533  0.00  0.00    -0.361 N 
HETATM   10  C   UNK     0     -16.305   7.110  11.360  0.00  0.00     0.022 A 
HETATM   11  C   UNK     0     -15.917   5.822  11.002  0.00  0.00    -0.027 A 
HETATM   12  C   UNK     0     -17.061   5.067  10.954  0.00  0.00    -0.031 A 
HETATM   13  C   UNK     0     -17.123   3.596  10.610  0.00  0.00     0.051 C 
HETATM   14  C   UNK     0     -15.349   8.294  11.473  0.00  0.00     0.115 C 
HETATM   15  C   UNK     0     -15.635   9.412  10.483  0.00  0.00     0.021 A 
HETATM   16  N   UNK     0     -16.773  10.117  10.345  0.00  0.00    -0.361 N 
HETATM   17  C   UNK     0     -16.646  10.959   9.317  0.00  0.00     0.022 A 
HETATM   18  C   UNK     0     -15.360  10.801   8.764  0.00  0.00    -0.027 A 
HETATM   19  C   UNK     0     -14.736   9.831   9.504  0.00  0.00    -0.031 A 
HETATM   20  C   UNK     0     -13.308   9.375   9.265  0.00  0.00     0.051 C 
HETATM   21  C   UNK     0     -17.653  11.909   8.710  0.00  0.00     0.115 C 
HETATM   22  C   UNK     0     -19.103  11.487   8.715  0.00  0.00     0.022 A 
HETATM   23  N   UNK     0     -19.615  10.272   8.478  0.00  0.00    -0.361 N 
HETATM   24  C   UNK     0     -20.938  10.313   8.732  0.00  0.00     0.021 A 
HETATM   25  C   UNK     0     -21.289  11.588   9.132  0.00  0.00    -0.031 A 
HETATM   26  C   UNK     0     -22.657  12.134   9.486  0.00  0.00     0.051 C 
HETATM   27  C   UNK     0     -20.132  12.358   9.130  0.00  0.00    -0.027 A 
HETATM   28  C   UNK     0     -21.928   9.162   8.695  0.00  0.00     0.115 C 
HETATM   29  H   UNK     0     -19.679   7.270   8.901  0.00  0.00     0.165 HD
HETATM   30  H   UNK     0     -18.237   8.028  11.878  0.00  0.00     0.165 HD
HETATM   31  H   UNK     0     -17.668  10.054  11.017  0.00  0.00     0.165 HD
HETATM   32  H   UNK     0     -19.053   9.384   8.087  0.00  0.00     0.165 HD
ENDROOT
BRANCH   6  33
HETATM   33  C   UNK     0     -22.337   6.033  12.639  0.00  0.00     0.051 C 
BRANCH  33  34
HETATM   34  C   UNK     0     -22.977   4.707  12.305  0.00  0.00     0.114 C 
BRANCH  34  35
HETATM   35  C   UNK     0     -24.451   4.923  12.248  0.00  0.00     0.139 C 
HETATM   36  O   UNK     0     -25.067   5.377  13.256  0.00  0.00    -0.650 OA
BRANCH  35  37
HETATM   37  O   UNK     0     -25.206   4.648  11.115  0.00  0.00    -0.776 OA
HETATM   38  H   UNK     0     -25.452   3.708  10.852  0.00  0.00     0.167 HD
ENDBRANCH  35  37
ENDBRANCH  34  35
ENDBRANCH  33  34
ENDBRANCH   6  33
BRANCH  27  39
HETATM   39  C   UNK     0     -20.125  13.813   9.439  0.00  0.00     0.051 C 
BRANCH  39  40
HETATM   40  C   UNK     0     -20.273  14.759   8.333  0.00  0.00     0.114 C 
BRANCH  40  41
HETATM   41  C   UNK     0     -20.347  14.327   6.955  0.00  0.00     0.139 C 
HETATM   42  O   UNK     0     -21.401  13.991   6.400  0.00  0.00    -0.650 OA
BRANCH  41  43
HETATM   43  O   UNK     0     -19.153  14.281   6.181  0.00  0.00    -0.776 OA
HETATM   44  H   UNK     0     -19.254  14.628   5.234  0.00  0.00     0.167 HD
ENDBRANCH  41  43
ENDBRANCH  40  41
ENDBRANCH  39  40
ENDBRANCH  27  39
BRANCH  11  45
HETATM   45  C   UNK     0     -14.534   5.301  10.715  0.00  0.00     0.051 C 
BRANCH  45  46
HETATM   46  C   UNK     0     -14.131   5.406   9.289  0.00  0.00     0.114 C 
BRANCH  46  47
HETATM   47  C   UNK     0     -12.713   4.955   9.197  0.00  0.00     0.139 C 
HETATM   48  O   UNK     0     -12.445   3.780   9.482  0.00  0.00    -0.650 OA
BRANCH  47  49
HETATM   49  O   UNK     0     -11.724   5.823   8.808  0.00  0.00    -0.776 OA
HETATM   50  H   UNK     0     -11.912   6.625   8.195  0.00  0.00     0.167 HD
ENDBRANCH  47  49
ENDBRANCH  46  47
ENDBRANCH  45  46
ENDBRANCH  11  45
BRANCH  18  51
HETATM   51  C   UNK     0     -14.751  11.550   7.607  0.00  0.00     0.051 C 
BRANCH  51  52
HETATM   52  C   UNK     0     -13.717  12.491   8.206  0.00  0.00     0.114 C 
BRANCH  52  53
HETATM   53  C   UNK     0     -14.339  13.705   8.769  0.00  0.00     0.139 C 
HETATM   54  O   UNK     0     -14.386  13.865   9.999  0.00  0.00    -0.650 OA
BRANCH  53  55
HETATM   55  O   UNK     0     -14.866  14.653   7.926  0.00  0.00    -0.776 OA
HETATM   56  H   UNK     0     -14.349  15.305   7.385  0.00  0.00     0.167 HD
ENDBRANCH  53  55
ENDBRANCH  52  53
ENDBRANCH  51  52
ENDBRANCH  18  51
TORSDOF 16
ENDMDL
MODEL 12
REMARK VINA RESULT:      -7.5     25.680     30.864
REMARK  16 active torsions:
REMARK  status: ('A' for Active; 'I' for Inactive)
REMARK    1  A    between atoms: C_6  and  C_7 
REMARK    2  A    between atoms: C_7  and  C_8 
REMARK    3  A    between atoms: C_8  and  C_9 
REMARK    4  A    between atoms: C_9  and  O_11 
REMARK    5  A    between atoms: C_16  and  C_17 
REMARK    6  A    between atoms: C_17  and  C_18 
REMARK    7  A    between atoms: C_18  and  C_19 
REMARK    8  A    between atoms: C_19  and  O_21 
REMARK    9  A    between atoms: C_28  and  C_29 
REMARK   10  A    between atoms: C_29  and  C_30 
REMARK   11  A    between atoms: C_30  and  C_31 
REMARK   12  A    between atoms: C_31  and  O_33 
REMARK   13  A    between atoms: C_42  and  C_43 
REMARK   14  A    between atoms: C_43  and  C_44 
REMARK   15  A    between atoms: C_44  and  C_45 
REMARK   16  A    between atoms: C_45  and  O_47 
ROOT
HETATM    1  C   UNK     0     -29.384   8.379  11.516  0.00  0.00     0.051 C 
HETATM    2  C   UNK     0     -27.986   7.812  11.378  0.00  0.00    -0.031 A 
HETATM    3  C   UNK     0     -27.136   7.823  10.283  0.00  0.00     0.021 A 
HETATM    4  N   UNK     0     -25.994   7.170  10.604  0.00  0.00    -0.361 N 
HETATM    5  C   UNK     0     -26.094   6.751  11.882  0.00  0.00     0.022 A 
HETATM    6  C   UNK     0     -27.328   7.134  12.396  0.00  0.00    -0.027 A 
HETATM    7  C   UNK     0     -25.076   6.068  12.742  0.00  0.00     0.115 C 
HETATM    8  C   UNK     0     -23.653   6.592  12.661  0.00  0.00     0.021 A 
HETATM    9  N   UNK     0     -23.236   7.856  12.496  0.00  0.00    -0.361 N 
HETATM   10  C   UNK     0     -21.890   7.843  12.388  0.00  0.00     0.022 A 
HETATM   11  C   UNK     0     -21.428   6.535  12.496  0.00  0.00    -0.027 A 
HETATM   12  C   UNK     0     -22.533   5.741  12.668  0.00  0.00    -0.031 A 
HETATM   13  C   UNK     0     -22.513   4.239  12.836  0.00  0.00     0.051 C 
HETATM   14  C   UNK     0     -20.995   9.051  12.127  0.00  0.00     0.115 C 
HETATM   15  C   UNK     0     -21.280   9.755  10.810  0.00  0.00     0.021 A 
HETATM   16  N   UNK     0     -22.440  10.306  10.408  0.00  0.00    -0.361 N 
HETATM   17  C   UNK     0     -22.300  10.763   9.161  0.00  0.00     0.022 A 
HETATM   18  C   UNK     0     -20.982  10.505   8.734  0.00  0.00    -0.027 A 
HETATM   19  C   UNK     0     -20.353   9.875   9.777  0.00  0.00    -0.031 A 
HETATM   20  C   UNK     0     -18.896   9.451   9.750  0.00  0.00     0.051 C 
HETATM   21  C   UNK     0     -23.317  11.396   8.238  0.00  0.00     0.115 C 
HETATM   22  C   UNK     0     -24.745  10.915   8.339  0.00  0.00     0.022 A 
HETATM   23  N   UNK     0     -25.190   9.663   8.507  0.00  0.00    -0.361 N 
HETATM   24  C   UNK     0     -26.525   9.709   8.690  0.00  0.00     0.021 A 
HETATM   25  C   UNK     0     -26.952  11.021   8.628  0.00  0.00    -0.031 A 
HETATM   26  C   UNK     0     -28.359  11.572   8.734  0.00  0.00     0.051 C 
HETATM   27  C   UNK     0     -25.831  11.812   8.404  0.00  0.00    -0.027 A 
HETATM   28  C   UNK     0     -27.459   8.555   9.011  0.00  0.00     0.115 C 
HETATM   29  H   UNK     0     -25.142   6.975   9.912  0.00  0.00     0.165 HD
HETATM   30  H   UNK     0     -23.884   8.767  12.505  0.00  0.00     0.165 HD
HETATM   31  H   UNK     0     -23.364  10.419  11.033  0.00  0.00     0.165 HD
HETATM   32  H   UNK     0     -24.571   8.730   8.455  0.00  0.00     0.165 HD
ENDROOT
BRANCH   6  33
HETATM   33  C   UNK     0     -27.924   6.904  13.762  0.00  0.00     0.051 C 
BRANCH  33  34
HETATM   34  C   UNK     0     -28.861   5.720  13.745  0.00  0.00     0.114 C 
BRANCH  34  35
HETATM   35  C   UNK     0     -30.097   6.117  14.478  0.00  0.00     0.139 C 
HETATM   36  O   UNK     0     -30.108   6.139  15.743  0.00  0.00    -0.650 OA
BRANCH  35  37
HETATM   37  O   UNK     0     -31.270   6.479  13.828  0.00  0.00    -0.776 OA
HETATM   38  H   UNK     0     -31.278   6.780  12.866  0.00  0.00     0.167 HD
ENDBRANCH  35  37
ENDBRANCH  34  35
ENDBRANCH  33  34
ENDBRANCH   6  33
BRANCH  27  39
HETATM   39  C   UNK     0     -25.904  13.285   8.207  0.00  0.00     0.051 C 
BRANCH  39  40
HETATM   40  C   UNK     0     -25.695  13.817   6.860  0.00  0.00     0.114 C 
BRANCH  40  41
HETATM   41  C   UNK     0     -24.897  14.997   6.613  0.00  0.00     0.139 C 
HETATM   42  O   UNK     0     -25.337  16.017   6.067  0.00  0.00    -0.650 OA
BRANCH  41  43
HETATM   43  O   UNK     0     -23.530  15.003   7.011  0.00  0.00    -0.776 OA
HETATM   44  H   UNK     0     -23.003  14.190   6.714  0.00  0.00     0.167 HD
ENDBRANCH  41  43
ENDBRANCH  40  41
ENDBRANCH  39  40
ENDBRANCH  27  39
BRANCH  11  45
HETATM   45  C   UNK     0     -20.011   6.030  12.445  0.00  0.00     0.051 C 
BRANCH  45  46
HETATM   46  C   UNK     0     -19.578   5.573  11.099  0.00  0.00     0.114 C 
BRANCH  46  47
HETATM   47  C   UNK     0     -18.259   4.899  11.265  0.00  0.00     0.139 C 
HETATM   48  O   UNK     0     -17.454   5.365  12.083  0.00  0.00    -0.650 OA
BRANCH  47  49
HETATM   49  O   UNK     0     -17.941   3.786  10.527  0.00  0.00    -0.776 OA
HETATM   50  H   UNK     0     -17.218   3.122  10.826  0.00  0.00     0.167 HD
ENDBRANCH  47  49
ENDBRANCH  46  47
ENDBRANCH  45  46
ENDBRANCH  11  45
BRANCH  18  51
HETATM   51  C   UNK     0     -20.351  10.859   7.413  0.00  0.00     0.051 C 
BRANCH  51  52
HETATM   52  C   UNK     0     -19.857  12.292   7.547  0.00  0.00     0.114 C 
BRANCH  52  53
HETATM   53  C   UNK     0     -19.765  12.967   6.238  0.00  0.00     0.139 C 
HETATM   54  O   UNK     0     -19.190  14.063   6.142  0.00  0.00    -0.650 OA
BRANCH  53  55
HETATM   55  O   UNK     0     -20.322  12.377   5.129  0.00  0.00    -0.776 OA
HETATM   56  H   UNK     0     -20.924  11.588   5.128  0.00  0.00     0.167 HD
ENDBRANCH  53  55
ENDBRANCH  52  53
ENDBRANCH  51  52
ENDBRANCH  18  51
TORSDOF 16
ENDMDL
MODEL 13
REMARK VINA RESULT:      -7.5     25.991     31.508
REMARK  16 active torsions:
REMARK  status: ('A' for Active; 'I' for Inactive)
REMARK    1  A    between atoms: C_6  and  C_7 
REMARK    2  A    between atoms: C_7  and  C_8 
REMARK    3  A    between atoms: C_8  and  C_9 
REMARK    4  A    between atoms: C_9  and  O_11 
REMARK    5  A    between atoms: C_16  and  C_17 
REMARK    6  A    between atoms: C_17  and  C_18 
REMARK    7  A    between atoms: C_18  and  C_19 
REMARK    8  A    between atoms: C_19  and  O_21 
REMARK    9  A    between atoms: C_28  and  C_29 
REMARK   10  A    between atoms: C_29  and  C_30 
REMARK   11  A    between atoms: C_30  and  C_31 
REMARK   12  A    between atoms: C_31  and  O_33 
REMARK   13  A    between atoms: C_42  and  C_43 
REMARK   14  A    between atoms: C_43  and  C_44 
REMARK   15  A    between atoms: C_44  and  C_45 
REMARK   16  A    between atoms: C_45  and  O_47 
ROOT
HETATM    1  C   UNK     0     -29.635   6.903  13.637  0.00  0.00     0.051 C 
HETATM    2  C   UNK     0     -28.207   6.628  13.211  0.00  0.00    -0.031 A 
HETATM    3  C   UNK     0     -27.631   6.719  11.954  0.00  0.00     0.021 A 
HETATM    4  N   UNK     0     -26.331   6.348  12.036  0.00  0.00    -0.361 N 
HETATM    5  C   UNK     0     -26.064   6.032  13.320  0.00  0.00     0.022 A 
HETATM    6  C   UNK     0     -27.216   6.193  14.082  0.00  0.00    -0.027 A 
HETATM    7  C   UNK     0     -24.763   5.653  13.956  0.00  0.00     0.115 C 
HETATM    8  C   UNK     0     -23.542   6.452  13.537  0.00  0.00     0.021 A 
HETATM    9  N   UNK     0     -23.459   7.756  13.232  0.00  0.00    -0.361 N 
HETATM   10  C   UNK     0     -22.198   8.013  12.825  0.00  0.00     0.022 A 
HETATM   11  C   UNK     0     -21.445   6.844  12.878  0.00  0.00    -0.027 A 
HETATM   12  C   UNK     0     -22.285   5.856  13.326  0.00  0.00    -0.031 A 
HETATM   13  C   UNK     0     -21.897   4.411  13.546  0.00  0.00     0.051 C 
HETATM   14  C   UNK     0     -21.669   9.352  12.321  0.00  0.00     0.115 C 
HETATM   15  C   UNK     0     -22.373   9.864  11.075  0.00  0.00     0.021 A 
HETATM   16  N   UNK     0     -23.685  10.124  10.922  0.00  0.00    -0.361 N 
HETATM   17  C   UNK     0     -23.915  10.488   9.658  0.00  0.00     0.022 A 
HETATM   18  C   UNK     0     -22.693  10.473   8.957  0.00  0.00    -0.027 A 
HETATM   19  C   UNK     0     -21.735  10.082   9.856  0.00  0.00    -0.031 A 
HETATM   20  C   UNK     0     -20.260   9.968   9.520  0.00  0.00     0.051 C 
HETATM   21  C   UNK     0     -25.218  10.812   8.962  0.00  0.00     0.115 C 
HETATM   22  C   UNK     0     -26.450  10.057   9.401  0.00  0.00     0.022 A 
HETATM   23  N   UNK     0     -26.560   8.759   9.715  0.00  0.00    -0.361 N 
HETATM   24  C   UNK     0     -27.803   8.543  10.191  0.00  0.00     0.021 A 
HETATM   25  C   UNK     0     -28.514   9.727  10.173  0.00  0.00    -0.031 A 
HETATM   26  C   UNK     0     -29.953   9.981  10.570  0.00  0.00     0.051 C 
HETATM   27  C   UNK     0     -27.669  10.711   9.672  0.00  0.00    -0.027 A 
HETATM   28  C   UNK     0     -28.369   7.253  10.759  0.00  0.00     0.115 C 
HETATM   29  H   UNK     0     -25.622   6.274  11.179  0.00  0.00     0.165 HD
HETATM   30  H   UNK     0     -24.277   8.509  13.350  0.00  0.00     0.165 HD
HETATM   31  H   UNK     0     -24.458  10.097  11.734  0.00  0.00     0.165 HD
HETATM   32  H   UNK     0     -25.775   7.974   9.562  0.00  0.00     0.165 HD
ENDROOT
BRANCH   6  33
HETATM   33  C   UNK     0     -27.445   5.966  15.555  0.00  0.00     0.051 C 
BRANCH  33  34
HETATM   34  C   UNK     0     -27.953   4.566  15.808  0.00  0.00     0.114 C 
BRANCH  34  35
HETATM   35  C   UNK     0     -28.222   4.446  17.270  0.00  0.00     0.139 C 
HETATM   36  O   UNK     0     -28.432   5.482  17.966  0.00  0.00    -0.650 OA
BRANCH  35  37
HETATM   37  O   UNK     0     -28.258   3.222  17.927  0.00  0.00    -0.776 OA
HETATM   38  H   UNK     0     -27.560   2.958  18.603  0.00  0.00     0.167 HD
ENDBRANCH  35  37
ENDBRANCH  34  35
ENDBRANCH  33  34
ENDBRANCH   6  33
BRANCH  27  39
HETATM   39  C   UNK     0     -28.107  12.114   9.437  0.00  0.00     0.051 C 
BRANCH  39  40
HETATM   40  C   UNK     0     -27.576  13.162  10.308  0.00  0.00     0.114 C 
BRANCH  40  41
HETATM   41  C   UNK     0     -26.357  13.875   9.999  0.00  0.00     0.139 C 
HETATM   42  O   UNK     0     -25.506  14.174  10.848  0.00  0.00    -0.650 OA
BRANCH  41  43
HETATM   43  O   UNK     0     -26.106  14.263   8.652  0.00  0.00    -0.776 OA
HETATM   44  H   UNK     0     -26.850  14.802   8.226  0.00  0.00     0.167 HD
ENDBRANCH  41  43
ENDBRANCH  40  41
ENDBRANCH  39  40
ENDBRANCH  27  39
BRANCH  11  45
HETATM   45  C   UNK     0     -19.994   6.641  12.531  0.00  0.00     0.051 C 
BRANCH  45  46
HETATM   46  C   UNK     0     -19.770   6.049  11.187  0.00  0.00     0.114 C 
BRANCH  46  47
HETATM   47  C   UNK     0     -18.582   5.154  11.292  0.00  0.00     0.139 C 
HETATM   48  O   UNK     0     -17.762   5.363  12.197  0.00  0.00    -0.650 OA
BRANCH  47  49
HETATM   49  O   UNK     0     -18.398   4.123  10.405  0.00  0.00    -0.776 OA
HETATM   50  H   UNK     0     -17.500   3.633  10.318  0.00  0.00     0.167 HD
ENDBRANCH  47  49
ENDBRANCH  46  47
ENDBRANCH  45  46
ENDBRANCH  11  45
BRANCH  18  51
HETATM   51  C   UNK     0     -22.449  10.833   7.514  0.00  0.00     0.051 C 
BRANCH  51  52
HETATM   52  C   UNK     0     -21.896  12.251   7.517  0.00  0.00     0.114 C 
BRANCH  52  53
HETATM   53  C   UNK     0     -22.961  13.256   7.704  0.00  0.00     0.139 C 
HETATM   54  O   UNK     0     -23.756  13.497   6.783  0.00  0.00    -0.650 OA
BRANCH  53  55
HETATM   55  O   UNK     0     -23.063  13.922   8.901  0.00  0.00    -0.776 OA
HETATM   56  H   UNK     0     -22.307  14.195   9.484  0.00  0.00     0.167 HD
ENDBRANCH  53  55
ENDBRANCH  52  53
ENDBRANCH  51  52
ENDBRANCH  18  51
TORSDOF 16
ENDMDL
MODEL 14
REMARK VINA RESULT:      -7.5     24.978     31.102
REMARK  16 active torsions:
REMARK  status: ('A' for Active; 'I' for Inactive)
REMARK    1  A    between atoms: C_6  and  C_7 
REMARK    2  A    between atoms: C_7  and  C_8 
REMARK    3  A    between atoms: C_8  and  C_9 
REMARK    4  A    between atoms: C_9  and  O_11 
REMARK    5  A    between atoms: C_16  and  C_17 
REMARK    6  A    between atoms: C_17  and  C_18 
REMARK    7  A    between atoms: C_18  and  C_19 
REMARK    8  A    between atoms: C_19  and  O_21 
REMARK    9  A    between atoms: C_28  and  C_29 
REMARK   10  A    between atoms: C_29  and  C_30 
REMARK   11  A    between atoms: C_30  and  C_31 
REMARK   12  A    between atoms: C_31  and  O_33 
REMARK   13  A    between atoms: C_42  and  C_43 
REMARK   14  A    between atoms: C_43  and  C_44 
REMARK   15  A    between atoms: C_44  and  C_45 
REMARK   16  A    between atoms: C_45  and  O_47 
ROOT
HETATM    1  C   UNK     0     -25.944   8.032  17.714  0.00  0.00     0.051 C 
HETATM    2  C   UNK     0     -24.480   8.208  17.365  0.00  0.00    -0.031 A 
HETATM    3  C   UNK     0     -23.599   7.307  16.787  0.00  0.00     0.021 A 
HETATM    4  N   UNK     0     -22.379   7.885  16.689  0.00  0.00    -0.361 N 
HETATM    5  C   UNK     0     -22.464   9.137  17.183  0.00  0.00     0.022 A 
HETATM    6  C   UNK     0     -23.764   9.371  17.618  0.00  0.00    -0.027 A 
HETATM    7  C   UNK     0     -21.430  10.218  17.222  0.00  0.00     0.115 C 
HETATM    8  C   UNK     0     -20.585  10.398  15.973  0.00  0.00     0.021 A 
HETATM    9  N   UNK     0     -20.950  10.256  14.689  0.00  0.00    -0.361 N 
HETATM   10  C   UNK     0     -19.853  10.422  13.921  0.00  0.00     0.022 A 
HETATM   11  C   UNK     0     -18.753  10.688  14.731  0.00  0.00    -0.027 A 
HETATM   12  C   UNK     0     -19.207  10.674  16.025  0.00  0.00    -0.031 A 
HETATM   13  C   UNK     0     -18.358  10.920  17.252  0.00  0.00     0.051 C 
HETATM   14  C   UNK     0     -19.786  10.285  12.402  0.00  0.00     0.115 C 
HETATM   15  C   UNK     0     -20.164   8.903  11.892  0.00  0.00     0.021 A 
HETATM   16  N   UNK     0     -21.325   8.247  12.078  0.00  0.00    -0.361 N 
HETATM   17  C   UNK     0     -21.234   7.033  11.531  0.00  0.00     0.022 A 
HETATM   18  C   UNK     0     -19.957   6.894  10.954  0.00  0.00    -0.027 A 
HETATM   19  C   UNK     0     -19.296   8.072  11.185  0.00  0.00    -0.031 A 
HETATM   20  C   UNK     0     -17.890   8.362  10.695  0.00  0.00     0.051 C 
HETATM   21  C   UNK     0     -22.227   5.893  11.528  0.00  0.00     0.115 C 
HETATM   22  C   UNK     0     -23.105   5.728  12.747  0.00  0.00     0.022 A 
HETATM   23  N   UNK     0     -22.769   5.868  14.036  0.00  0.00    -0.361 N 
HETATM   24  C   UNK     0     -23.892   5.776  14.778  0.00  0.00     0.021 A 
HETATM   25  C   UNK     0     -24.974   5.561  13.947  0.00  0.00    -0.031 A 
HETATM   26  C   UNK     0     -26.429   5.353  14.312  0.00  0.00     0.051 C 
HETATM   27  C   UNK     0     -24.496   5.527  12.642  0.00  0.00    -0.027 A 
HETATM   28  C   UNK     0     -24.031   5.960  16.279  0.00  0.00     0.115 C 
HETATM   29  H   UNK     0     -21.455   7.390  16.307  0.00  0.00     0.165 HD
HETATM   30  H   UNK     0     -21.991  10.088  14.319  0.00  0.00     0.165 HD
HETATM   31  H   UNK     0     -22.244   8.667  12.562  0.00  0.00     0.165 HD
HETATM   32  H   UNK     0     -21.730   5.990  14.438  0.00  0.00     0.165 HD
ENDROOT
BRANCH   6  33
HETATM   33  C   UNK     0     -24.370  10.599  18.249  0.00  0.00     0.051 C 
BRANCH  33  34
HETATM   34  C   UNK     0     -24.357  10.488  19.755  0.00  0.00     0.114 C 
BRANCH  34  35
HETATM   35  C   UNK     0     -25.625  11.089  20.259  0.00  0.00     0.139 C 
HETATM   36  O   UNK     0     -25.606  11.891  21.238  0.00  0.00    -0.650 OA
BRANCH  35  37
HETATM   37  O   UNK     0     -26.863  10.811  19.692  0.00  0.00    -0.776 OA
HETATM   38  H   UNK     0     -27.190   9.867  19.560  0.00  0.00     0.167 HD
ENDBRANCH  35  37
ENDBRANCH  34  35
ENDBRANCH  33  34
ENDBRANCH   6  33
BRANCH  27  39
HETATM   39  C   UNK     0     -25.365   5.243  11.467  0.00  0.00     0.051 C 
BRANCH  39  40
HETATM   40  C   UNK     0     -26.128   6.347  10.886  0.00  0.00     0.114 C 
BRANCH  40  41
HETATM   41  C   UNK     0     -27.493   6.189  10.438  0.00  0.00     0.139 C 
HETATM   42  O   UNK     0     -27.987   6.840   9.508  0.00  0.00    -0.650 OA
BRANCH  41  43
HETATM   43  O   UNK     0     -28.328   5.238  11.091  0.00  0.00    -0.776 OA
HETATM   44  H   UNK     0     -27.855   4.669  11.782  0.00  0.00     0.167 HD
ENDBRANCH  41  43
ENDBRANCH  40  41
ENDBRANCH  39  40
ENDBRANCH  27  39
BRANCH  11  45
HETATM   45  C   UNK     0     -17.327  10.949  14.327  0.00  0.00     0.051 C 
BRANCH  45  46
HETATM   46  C   UNK     0     -16.543   9.720  14.038  0.00  0.00     0.114 C 
BRANCH  46  47
HETATM   47  C   UNK     0     -15.461   9.637  15.061  0.00  0.00     0.139 C 
HETATM   48  O   UNK     0     -15.173  10.656  15.703  0.00  0.00    -0.650 OA
BRANCH  47  49
HETATM   49  O   UNK     0     -14.796   8.458  15.285  0.00  0.00    -0.776 OA
HETATM   50  H   UNK     0     -15.202   7.547  15.037  0.00  0.00     0.167 HD
ENDBRANCH  47  49
ENDBRANCH  46  47
ENDBRANCH  45  46
ENDBRANCH  11  45
BRANCH  18  51
HETATM   51  C   UNK     0     -19.403   5.710  10.203  0.00  0.00     0.051 C 
BRANCH  51  52
HETATM   52  C   UNK     0     -18.673   4.858  11.231  0.00  0.00     0.114 C 
BRANCH  52  53
HETATM   53  C   UNK     0     -17.384   4.359  10.714  0.00  0.00     0.139 C 
HETATM   54  O   UNK     0     -16.530   5.157  10.298  0.00  0.00    -0.650 OA
BRANCH  53  55
HETATM   55  O   UNK     0     -17.138   3.007  10.693  0.00  0.00    -0.776 OA
HETATM   56  H   UNK     0     -17.800   2.290  10.878  0.00  0.00     0.167 HD
ENDBRANCH  53  55
ENDBRANCH  52  53
ENDBRANCH  51  52
ENDBRANCH  18  51
TORSDOF 16
ENDMDL
MODEL 15
REMARK VINA RESULT:      -7.4     20.360     23.333
REMARK  16 active torsions:
REMARK  status: ('A' for Active; 'I' for Inactive)
REMARK    1  A    between atoms: C_6  and  C_7 
REMARK    2  A    between atoms: C_7  and  C_8 
REMARK    3  A    between atoms: C_8  and  C_9 
REMARK    4  A    between atoms: C_9  and  O_11 
REMARK    5  A    between atoms: C_16  and  C_17 
REMARK    6  A    between atoms: C_17  and  C_18 
REMARK    7  A    between atoms: C_18  and  C_19 
REMARK    8  A    between atoms: C_19  and  O_21 
REMARK    9  A    between atoms: C_28  and  C_29 
REMARK   10  A    between atoms: C_29  and  C_30 
REMARK   11  A    between atoms: C_30  and  C_31 
REMARK   12  A    between atoms: C_31  and  O_33 
REMARK   13  A    between atoms: C_42  and  C_43 
REMARK   14  A    between atoms: C_43  and  C_44 
REMARK   15  A    between atoms: C_44  and  C_45 
REMARK   16  A    between atoms: C_45  and  O_47 
ROOT
HETATM    1  C   UNK     0     -27.764 -28.343   7.176  0.00  0.00     0.051 C 
HETATM    2  C   UNK     0     -26.809 -27.822   8.230  0.00  0.00    -0.031 A 
HETATM    3  C   UNK     0     -25.447 -27.582   8.142  0.00  0.00     0.021 A 
HETATM    4  N   UNK     0     -24.997 -27.147   9.343  0.00  0.00    -0.361 N 
HETATM    5  C   UNK     0     -26.044 -27.097  10.192  0.00  0.00     0.022 A 
HETATM    6  C   UNK     0     -27.193 -27.515   9.529  0.00  0.00    -0.027 A 
HETATM    7  C   UNK     0     -26.102 -26.600  11.603  0.00  0.00     0.115 C 
HETATM    8  C   UNK     0     -25.352 -25.314  11.904  0.00  0.00     0.021 A 
HETATM    9  N   UNK     0     -25.190 -24.238  11.119  0.00  0.00    -0.361 N 
HETATM   10  C   UNK     0     -24.375 -23.372  11.759  0.00  0.00     0.022 A 
HETATM   11  C   UNK     0     -24.010 -23.901  12.993  0.00  0.00    -0.027 A 
HETATM   12  C   UNK     0     -24.622 -25.125  13.091  0.00  0.00    -0.031 A 
HETATM   13  C   UNK     0     -24.515 -26.064  14.271  0.00  0.00     0.051 C 
HETATM   14  C   UNK     0     -23.867 -22.041  11.212  0.00  0.00     0.115 C 
HETATM   15  C   UNK     0     -23.041 -22.171   9.943  0.00  0.00     0.021 A 
HETATM   16  N   UNK     0     -23.417 -22.711   8.769  0.00  0.00    -0.361 N 
HETATM   17  C   UNK     0     -22.381 -22.699   7.928  0.00  0.00     0.022 A 
HETATM   18  C   UNK     0     -21.278 -22.114   8.582  0.00  0.00    -0.027 A 
HETATM   19  C   UNK     0     -21.705 -21.787   9.843  0.00  0.00    -0.031 A 
HETATM   20  C   UNK     0     -20.833 -21.096  10.876  0.00  0.00     0.051 C 
HETATM   21  C   UNK     0     -22.262 -23.249   6.525  0.00  0.00     0.115 C 
HETATM   22  C   UNK     0     -23.038 -24.503   6.198  0.00  0.00     0.022 A 
HETATM   23  N   UNK     0     -23.219 -25.589   6.962  0.00  0.00    -0.361 N 
HETATM   24  C   UNK     0     -24.096 -26.402   6.339  0.00  0.00     0.021 A 
HETATM   25  C   UNK     0     -24.480 -25.832   5.141  0.00  0.00    -0.031 A 
HETATM   26  C   UNK     0     -25.410 -26.380   4.079  0.00  0.00     0.051 C 
HETATM   27  C   UNK     0     -23.816 -24.616   5.028  0.00  0.00    -0.027 A 
HETATM   28  C   UNK     0     -24.682 -27.706   6.854  0.00  0.00     0.115 C 
HETATM   29  H   UNK     0     -23.935 -26.917   9.593  0.00  0.00     0.165 HD
HETATM   30  H   UNK     0     -25.689 -24.064  10.135  0.00  0.00     0.165 HD
HETATM   31  H   UNK     0     -24.450 -23.065   8.512  0.00  0.00     0.165 HD
HETATM   32  H   UNK     0     -22.697 -25.811   7.928  0.00  0.00     0.165 HD
ENDROOT
BRANCH   6  33
HETATM   33  C   UNK     0     -28.609 -27.646  10.031  0.00  0.00     0.051 C 
BRANCH  33  34
HETATM   34  C   UNK     0     -28.836 -29.008  10.643  0.00  0.00     0.114 C 
BRANCH  34  35
HETATM   35  C   UNK     0     -30.144 -29.513  10.135  0.00  0.00     0.139 C 
HETATM   36  O   UNK     0     -30.557 -29.172   8.989  0.00  0.00    -0.650 OA
BRANCH  35  37
HETATM   37  O   UNK     0     -30.955 -30.366  10.873  0.00  0.00    -0.776 OA
HETATM   38  H   UNK     0     -30.580 -30.998  11.562  0.00  0.00     0.167 HD
ENDBRANCH  35  37
ENDBRANCH  34  35
ENDBRANCH  33  34
ENDBRANCH   6  33
BRANCH  27  39
HETATM   39  C   UNK     0     -23.923 -23.741   3.829  0.00  0.00     0.051 C 
BRANCH  39  40
HETATM   40  C   UNK     0     -22.893 -23.849   2.797  0.00  0.00     0.114 C 
BRANCH  40  41
HETATM   41  C   UNK     0     -22.100 -22.714   2.379  0.00  0.00     0.139 C 
HETATM   42  O   UNK     0     -21.935 -22.395   1.194  0.00  0.00    -0.650 OA
BRANCH  41  43
HETATM   43  O   UNK     0     -21.466 -21.911   3.369  0.00  0.00    -0.776 OA
HETATM   44  H   UNK     0     -20.759 -21.282   3.009  0.00  0.00     0.167 HD
ENDBRANCH  41  43
ENDBRANCH  40  41
ENDBRANCH  39  40
ENDBRANCH  27  39
BRANCH  11  45
HETATM   45  C   UNK     0     -23.127 -23.299  14.052  0.00  0.00     0.051 C 
BRANCH  45  46
HETATM   46  C   UNK     0     -21.676 -23.525  13.832  0.00  0.00     0.114 C 
BRANCH  46  47
HETATM   47  C   UNK     0     -20.961 -22.306  14.308  0.00  0.00     0.139 C 
HETATM   48  O   UNK     0     -19.749 -22.202  14.076  0.00  0.00    -0.650 OA
BRANCH  47  49
HETATM   49  O   UNK     0     -21.630 -21.321  14.990  0.00  0.00    -0.776 OA
HETATM   50  H   UNK     0     -22.407 -21.530  15.628  0.00  0.00     0.167 HD
ENDBRANCH  47  49
ENDBRANCH  46  47
ENDBRANCH  45  46
ENDBRANCH  11  45
BRANCH  18  51
HETATM   51  C   UNK     0     -19.900 -21.862   8.029  0.00  0.00     0.051 C 
BRANCH  51  52
HETATM   52  C   UNK     0     -19.891 -20.418   7.549  0.00  0.00     0.114 C 
BRANCH  52  53
HETATM   53  C   UNK     0     -20.251 -20.311   6.122  0.00  0.00     0.139 C 
HETATM   54  O   UNK     0     -19.435 -20.644   5.248  0.00  0.00    -0.650 OA
BRANCH  53  55
HETATM   55  O   UNK     0     -21.491 -19.838   5.768  0.00  0.00    -0.776 OA
HETATM   56  H   UNK     0     -22.142 -19.395   6.373  0.00  0.00     0.167 HD
ENDBRANCH  53  55
ENDBRANCH  52  53
ENDBRANCH  51  52
ENDBRANCH  18  51
TORSDOF 16
ENDMDL
MODEL 16
REMARK VINA RESULT:      -7.4     25.842     30.567
REMARK  16 active torsions:
REMARK  status: ('A' for Active; 'I' for Inactive)
REMARK    1  A    between atoms: C_6  and  C_7 
REMARK    2  A    between atoms: C_7  and  C_8 
REMARK    3  A    between atoms: C_8  and  C_9 
REMARK    4  A    between atoms: C_9  and  O_11 
REMARK    5  A    between atoms: C_16  and  C_17 
REMARK    6  A    between atoms: C_17  and  C_18 
REMARK    7  A    between atoms: C_18  and  C_19 
REMARK    8  A    between atoms: C_19  and  O_21 
REMARK    9  A    between atoms: C_28  and  C_29 
REMARK   10  A    between atoms: C_29  and  C_30 
REMARK   11  A    between atoms: C_30  and  C_31 
REMARK   12  A    between atoms: C_31  and  O_33 
REMARK   13  A    between atoms: C_42  and  C_43 
REMARK   14  A    between atoms: C_43  and  C_44 
REMARK   15  A    between atoms: C_44  and  C_45 
REMARK   16  A    between atoms: C_45  and  O_47 
ROOT
HETATM    1  C   UNK     0     -27.507   6.535  12.186  0.00  0.00     0.051 C 
HETATM    2  C   UNK     0     -26.119   6.506  11.580  0.00  0.00    -0.031 A 
HETATM    3  C   UNK     0     -25.695   6.934  10.332  0.00  0.00     0.021 A 
HETATM    4  N   UNK     0     -24.370   6.685  10.206  0.00  0.00    -0.361 N 
HETATM    5  C   UNK     0     -23.938   6.115  11.350  0.00  0.00     0.022 A 
HETATM    6  C   UNK     0     -25.008   5.986  12.230  0.00  0.00    -0.027 A 
HETATM    7  C   UNK     0     -22.550   5.733  11.759  0.00  0.00     0.115 C 
HETATM    8  C   UNK     0     -21.446   6.723  11.429  0.00  0.00     0.021 A 
HETATM    9  N   UNK     0     -21.497   8.064  11.433  0.00  0.00    -0.361 N 
HETATM   10  C   UNK     0     -20.311   8.529  10.985  0.00  0.00     0.022 A 
HETATM   11  C   UNK     0     -19.471   7.458  10.694  0.00  0.00    -0.027 A 
HETATM   12  C   UNK     0     -20.179   6.317  10.972  0.00  0.00    -0.031 A 
HETATM   13  C   UNK     0     -19.662   4.906  10.810  0.00  0.00     0.051 C 
HETATM   14  C   UNK     0     -19.943   9.993  10.763  0.00  0.00     0.115 C 
HETATM   15  C   UNK     0     -20.819  10.700   9.741  0.00  0.00     0.021 A 
HETATM   16  N   UNK     0     -22.155  10.857   9.773  0.00  0.00    -0.361 N 
HETATM   17  C   UNK     0     -22.551  11.472   8.656  0.00  0.00     0.022 A 
HETATM   18  C   UNK     0     -21.417  11.737   7.863  0.00  0.00    -0.027 A 
HETATM   19  C   UNK     0     -20.338  11.250   8.554  0.00  0.00    -0.031 A 
HETATM   20  C   UNK     0     -18.905  11.361   8.068  0.00  0.00     0.051 C 
HETATM   21  C   UNK     0     -23.943  11.815   8.177  0.00  0.00     0.115 C 
HETATM   22  C   UNK     0     -25.059  10.862   8.536  0.00  0.00     0.022 A 
HETATM   23  N   UNK     0     -25.036   9.523   8.545  0.00  0.00    -0.361 N 
HETATM   24  C   UNK     0     -26.198   9.083   9.068  0.00  0.00     0.021 A 
HETATM   25  C   UNK     0     -26.993  10.165   9.394  0.00  0.00    -0.031 A 
HETATM   26  C   UNK     0     -28.395  10.179   9.968  0.00  0.00     0.051 C 
HETATM   27  C   UNK     0     -26.286  11.315   9.062  0.00  0.00    -0.027 A 
HETATM   28  C   UNK     0     -26.599   7.649   9.367  0.00  0.00     0.115 C 
HETATM   29  H   UNK     0     -23.757   6.877   9.295  0.00  0.00     0.165 HD
HETATM   30  H   UNK     0     -22.350   8.686  11.798  0.00  0.00     0.165 HD
HETATM   31  H   UNK     0     -22.829  10.572  10.622  0.00  0.00     0.165 HD
HETATM   32  H   UNK     0     -24.215   8.874   8.142  0.00  0.00     0.165 HD
ENDROOT
BRANCH   6  33
HETATM   33  C   UNK     0     -25.054   5.411  13.624  0.00  0.00     0.051 C 
BRANCH  33  34
HETATM   34  C   UNK     0     -24.770   6.479  14.653  0.00  0.00     0.114 C 
BRANCH  34  35
HETATM   35  C   UNK     0     -23.807   5.906  15.637  0.00  0.00     0.139 C 
HETATM   36  O   UNK     0     -22.607   5.687  15.301  0.00  0.00    -0.650 OA
BRANCH  35  37
HETATM   37  O   UNK     0     -24.167   5.593  16.942  0.00  0.00    -0.776 OA
HETATM   38  H   UNK     0     -23.794   4.790  17.422  0.00  0.00     0.167 HD
ENDBRANCH  35  37
ENDBRANCH  34  35
ENDBRANCH  33  34
ENDBRANCH   6  33
BRANCH  27  39
HETATM   39  C   UNK     0     -26.852  12.684   9.204  0.00  0.00     0.051 C 
BRANCH  39  40
HETATM   40  C   UNK     0     -26.580  13.423  10.436  0.00  0.00     0.114 C 
BRANCH  40  41
HETATM   41  C   UNK     0     -25.781  12.870  11.506  0.00  0.00     0.139 C 
HETATM   42  O   UNK     0     -26.257  12.228  12.453  0.00  0.00    -0.650 OA
BRANCH  41  43
HETATM   43  O   UNK     0     -24.371  13.063  11.487  0.00  0.00    -0.776 OA
HETATM   44  H   UNK     0     -23.830  12.211  11.570  0.00  0.00     0.167 HD
ENDBRANCH  41  43
ENDBRANCH  40  41
ENDBRANCH  39  40
ENDBRANCH  27  39
BRANCH  11  45
HETATM   45  C   UNK     0     -18.057   7.484  10.178  0.00  0.00     0.051 C 
BRANCH  45  46
HETATM   46  C   UNK     0     -17.024   7.548  11.244  0.00  0.00     0.114 C 
BRANCH  46  47
HETATM   47  C   UNK     0     -16.061   6.438  10.993  0.00  0.00     0.139 C 
HETATM   48  O   UNK     0     -16.281   5.335  11.513  0.00  0.00    -0.650 OA
BRANCH  47  49
HETATM   49  O   UNK     0     -14.955   6.632  10.206  0.00  0.00    -0.776 OA
HETATM   50  H   UNK     0     -14.615   5.913   9.556  0.00  0.00     0.167 HD
ENDBRANCH  47  49
ENDBRANCH  46  47
ENDBRANCH  45  46
ENDBRANCH  11  45
BRANCH  18  51
HETATM   51  C   UNK     0     -21.362  12.435   6.529  0.00  0.00     0.051 C 
BRANCH  51  52
HETATM   52  C   UNK     0     -21.262  13.923   6.831  0.00  0.00     0.114 C 
BRANCH  52  53
HETATM   53  C   UNK     0     -19.970  14.487   6.395  0.00  0.00     0.139 C 
HETATM   54  O   UNK     0     -19.220  13.826   5.660  0.00  0.00    -0.650 OA
BRANCH  53  55
HETATM   55  O   UNK     0     -19.602  15.743   6.811  0.00  0.00    -0.776 OA
HETATM   56  H   UNK     0     -19.068  16.398   6.289  0.00  0.00     0.167 HD
ENDBRANCH  53  55
ENDBRANCH  52  53
ENDBRANCH  51  52
ENDBRANCH  18  51
TORSDOF 16
ENDMDL
MODEL 17
REMARK VINA RESULT:      -7.2     26.905     31.416
REMARK  16 active torsions:
REMARK  status: ('A' for Active; 'I' for Inactive)
REMARK    1  A    between atoms: C_6  and  C_7 
REMARK    2  A    between atoms: C_7  and  C_8 
REMARK    3  A    between atoms: C_8  and  C_9 
REMARK    4  A    between atoms: C_9  and  O_11 
REMARK    5  A    between atoms: C_16  and  C_17 
REMARK    6  A    between atoms: C_17  and  C_18 
REMARK    7  A    between atoms: C_18  and  C_19 
REMARK    8  A    between atoms: C_19  and  O_21 
REMARK    9  A    between atoms: C_28  and  C_29 
REMARK   10  A    between atoms: C_29  and  C_30 
REMARK   11  A    between atoms: C_30  and  C_31 
REMARK   12  A    between atoms: C_31  and  O_33 
REMARK   13  A    between atoms: C_42  and  C_43 
REMARK   14  A    between atoms: C_43  and  C_44 
REMARK   15  A    between atoms: C_44  and  C_45 
REMARK   16  A    between atoms: C_45  and  O_47 
ROOT
HETATM    1  C   UNK     0     -25.347   5.742  17.296  0.00  0.00     0.051 C 
HETATM    2  C   UNK     0     -25.901   6.798  16.360  0.00  0.00    -0.031 A 
HETATM    3  C   UNK     0     -25.226   7.726  15.583  0.00  0.00     0.021 A 
HETATM    4  N   UNK     0     -26.129   8.492  14.927  0.00  0.00    -0.361 N 
HETATM    5  C   UNK     0     -27.365   8.067  15.262  0.00  0.00     0.022 A 
HETATM    6  C   UNK     0     -27.259   7.010  16.159  0.00  0.00    -0.027 A 
HETATM    7  C   UNK     0     -28.698   8.513  14.746  0.00  0.00     0.115 C 
HETATM    8  C   UNK     0     -28.807   8.743  13.249  0.00  0.00     0.021 A 
HETATM    9  N   UNK     0     -28.211   8.068  12.254  0.00  0.00    -0.361 N 
HETATM   10  C   UNK     0     -28.521   8.678  11.090  0.00  0.00     0.022 A 
HETATM   11  C   UNK     0     -29.347   9.770  11.342  0.00  0.00    -0.027 A 
HETATM   12  C   UNK     0     -29.531   9.817  12.700  0.00  0.00    -0.031 A 
HETATM   13  C   UNK     0     -30.366  10.841  13.434  0.00  0.00     0.051 C 
HETATM   14  C   UNK     0     -28.011   8.289   9.705  0.00  0.00     0.115 C 
HETATM   15  C   UNK     0     -26.500   8.370   9.560  0.00  0.00     0.021 A 
HETATM   16  N   UNK     0     -25.570   7.716  10.281  0.00  0.00    -0.361 N 
HETATM   17  C   UNK     0     -24.356   8.112   9.893  0.00  0.00     0.022 A 
HETATM   18  C   UNK     0     -24.502   9.064   8.864  0.00  0.00    -0.027 A 
HETATM   19  C   UNK     0     -25.849   9.215   8.664  0.00  0.00    -0.031 A 
HETATM   20  C   UNK     0     -26.449  10.129   7.611  0.00  0.00     0.051 C 
HETATM   21  C   UNK     0     -22.993   7.738  10.431  0.00  0.00     0.115 C 
HETATM   22  C   UNK     0     -22.879   7.463  11.912  0.00  0.00     0.022 A 
HETATM   23  N   UNK     0     -23.464   8.116  12.924  0.00  0.00    -0.361 N 
HETATM   24  C   UNK     0     -23.205   7.446  14.066  0.00  0.00     0.021 A 
HETATM   25  C   UNK     0     -22.426   6.341  13.782  0.00  0.00    -0.031 A 
HETATM   26  C   UNK     0     -21.850   5.311  14.732  0.00  0.00     0.051 C 
HETATM   27  C   UNK     0     -22.204   6.330  12.410  0.00  0.00    -0.027 A 
HETATM   28  C   UNK     0     -23.729   7.747  15.459  0.00  0.00     0.115 C 
HETATM   29  H   UNK     0     -25.888   9.354  14.262  0.00  0.00     0.165 HD
HETATM   30  H   UNK     0     -27.612   7.131  12.364  0.00  0.00     0.165 HD
HETATM   31  H   UNK     0     -25.772   6.922  11.046  0.00  0.00     0.165 HD
HETATM   32  H   UNK     0     -24.029   9.081  12.849  0.00  0.00     0.165 HD
ENDROOT
BRANCH   6  33
HETATM   33  C   UNK     0     -28.336   6.198  16.833  0.00  0.00     0.051 C 
BRANCH  33  34
HETATM   34  C   UNK     0     -28.658   4.962  16.027  0.00  0.00     0.114 C 
BRANCH  34  35
HETATM   35  C   UNK     0     -28.591   3.795  16.953  0.00  0.00     0.139 C 
HETATM   36  O   UNK     0     -28.081   3.923  18.104  0.00  0.00    -0.650 OA
BRANCH  35  37
HETATM   37  O   UNK     0     -29.074   2.538  16.611  0.00  0.00    -0.776 OA
HETATM   38  H   UNK     0     -29.207   2.259  15.652  0.00  0.00     0.167 HD
ENDBRANCH  35  37
ENDBRANCH  34  35
ENDBRANCH  33  34
ENDBRANCH   6  33
BRANCH  27  39
HETATM   39  C   UNK     0     -21.342   5.322  11.736  0.00  0.00     0.051 C 
BRANCH  39  40
HETATM   40  C   UNK     0     -20.087   5.772  11.136  0.00  0.00     0.114 C 
BRANCH  40  41
HETATM   41  C   UNK     0     -18.960   6.199  11.936  0.00  0.00     0.139 C 
HETATM   42  O   UNK     0     -18.893   7.306  12.485  0.00  0.00    -0.650 OA
BRANCH  41  43
HETATM   43  O   UNK     0     -17.861   5.311  12.110  0.00  0.00    -0.776 OA
HETATM   44  H   UNK     0     -17.324   5.138  11.269  0.00  0.00     0.167 HD
ENDBRANCH  41  43
ENDBRANCH  40  41
ENDBRANCH  39  40
ENDBRANCH  27  39
BRANCH  11  45
HETATM   45  C   UNK     0     -29.951  10.740  10.362  0.00  0.00     0.051 C 
BRANCH  45  46
HETATM   46  C   UNK     0     -28.953  11.477   9.545  0.00  0.00     0.114 C 
BRANCH  46  47
HETATM   47  C   UNK     0     -28.139  12.303  10.482  0.00  0.00     0.139 C 
HETATM   48  O   UNK     0     -28.693  13.232  11.086  0.00  0.00    -0.650 OA
BRANCH  47  49
HETATM   49  O   UNK     0     -26.805  12.042  10.671  0.00  0.00    -0.776 OA
HETATM   50  H   UNK     0     -26.169  12.731  11.091  0.00  0.00     0.167 HD
ENDBRANCH  47  49
ENDBRANCH  46  47
ENDBRANCH  45  46
ENDBRANCH  11  45
BRANCH  18  51
HETATM   51  C   UNK     0     -23.416   9.774   8.098  0.00  0.00     0.051 C 
BRANCH  51  52
HETATM   52  C   UNK     0     -22.913  10.888   9.005  0.00  0.00     0.114 C 
BRANCH  52  53
HETATM   53  C   UNK     0     -23.625  12.158   8.762  0.00  0.00     0.139 C 
HETATM   54  O   UNK     0     -23.704  12.615   7.610  0.00  0.00    -0.650 OA
BRANCH  53  55
HETATM   55  O   UNK     0     -24.194  12.830   9.816  0.00  0.00    -0.776 OA
HETATM   56  H   UNK     0     -25.114  13.204   9.841  0.00  0.00     0.167 HD
ENDBRANCH  53  55
ENDBRANCH  52  53
ENDBRANCH  51  52
ENDBRANCH  18  51
TORSDOF 16
ENDMDL
MODEL 18
REMARK VINA RESULT:      -7.2     14.929     20.047
REMARK  16 active torsions:
REMARK  status: ('A' for Active; 'I' for Inactive)
REMARK    1  A    between atoms: C_6  and  C_7 
REMARK    2  A    between atoms: C_7  and  C_8 
REMARK    3  A    between atoms: C_8  and  C_9 
REMARK    4  A    between atoms: C_9  and  O_11 
REMARK    5  A    between atoms: C_16  and  C_17 
REMARK    6  A    between atoms: C_17  and  C_18 
REMARK    7  A    between atoms: C_18  and  C_19 
REMARK    8  A    between atoms: C_19  and  O_21 
REMARK    9  A    between atoms: C_28  and  C_29 
REMARK   10  A    between atoms: C_29  and  C_30 
REMARK   11  A    between atoms: C_30  and  C_31 
REMARK   12  A    between atoms: C_31  and  O_33 
REMARK   13  A    between atoms: C_42  and  C_43 
REMARK   14  A    between atoms: C_43  and  C_44 
REMARK   15  A    between atoms: C_44  and  C_45 
REMARK   16  A    between atoms: C_45  and  O_47 
ROOT
HETATM    1  C   UNK     0     -25.901 -20.403  -0.427  0.00  0.00     0.051 C 
HETATM    2  C   UNK     0     -27.133 -19.823  -1.092  0.00  0.00    -0.031 A 
HETATM    3  C   UNK     0     -27.294 -18.606  -1.735  0.00  0.00     0.021 A 
HETATM    4  N   UNK     0     -28.578 -18.493  -2.151  0.00  0.00    -0.361 N 
HETATM    5  C   UNK     0     -29.236 -19.616  -1.795  0.00  0.00     0.022 A 
HETATM    6  C   UNK     0     -28.362 -20.468  -1.128  0.00  0.00    -0.027 A 
HETATM    7  C   UNK     0     -30.642 -20.032  -2.097  0.00  0.00     0.115 C 
HETATM    8  C   UNK     0     -31.141 -19.772  -3.507  0.00  0.00     0.021 A 
HETATM    9  N   UNK     0     -30.460 -19.840  -4.661  0.00  0.00    -0.361 N 
HETATM   10  C   UNK     0     -31.280 -19.438  -5.656  0.00  0.00     0.022 A 
HETATM   11  C   UNK     0     -32.526 -19.111  -5.129  0.00  0.00    -0.027 A 
HETATM   12  C   UNK     0     -32.446 -19.320  -3.776  0.00  0.00    -0.031 A 
HETATM   13  C   UNK     0     -33.570 -19.099  -2.789  0.00  0.00     0.051 C 
HETATM   14  C   UNK     0     -30.907 -19.296  -7.129  0.00  0.00     0.115 C 
HETATM   15  C   UNK     0     -29.794 -18.293  -7.388  0.00  0.00     0.021 A 
HETATM   16  N   UNK     0     -28.543 -18.308  -6.891  0.00  0.00    -0.361 N 
HETATM   17  C   UNK     0     -27.895 -17.215  -7.302  0.00  0.00     0.022 A 
HETATM   18  C   UNK     0     -28.763 -16.457  -8.114  0.00  0.00    -0.027 A 
HETATM   19  C   UNK     0     -29.948 -17.144  -8.161  0.00  0.00    -0.031 A 
HETATM   20  C   UNK     0     -31.154 -16.692  -8.965  0.00  0.00     0.051 C 
HETATM   21  C   UNK     0     -26.504 -16.727  -6.967  0.00  0.00     0.115 C 
HETATM   22  C   UNK     0     -25.977 -17.017  -5.582  0.00  0.00     0.022 A 
HETATM   23  N   UNK     0     -26.634 -16.962  -4.415  0.00  0.00    -0.361 N 
HETATM   24  C   UNK     0     -25.823 -17.440  -3.450  0.00  0.00     0.021 A 
HETATM   25  C   UNK     0     -24.612 -17.803  -4.006  0.00  0.00    -0.031 A 
HETATM   26  C   UNK     0     -23.375 -18.351  -3.324  0.00  0.00     0.051 C 
HETATM   27  C   UNK     0     -24.686 -17.542  -5.370  0.00  0.00    -0.027 A 
HETATM   28  C   UNK     0     -26.153 -17.660  -1.984  0.00  0.00     0.115 C 
HETATM   29  H   UNK     0     -29.021 -17.605  -2.658  0.00  0.00     0.165 HD
HETATM   30  H   UNK     0     -29.416 -20.219  -4.784  0.00  0.00     0.165 HD
HETATM   31  H   UNK     0     -28.092 -19.129  -6.276  0.00  0.00     0.165 HD
HETATM   32  H   UNK     0     -27.661 -16.543  -4.256  0.00  0.00     0.165 HD
ENDROOT
BRANCH   6  33
HETATM   33  C   UNK     0     -28.604 -21.830  -0.528  0.00  0.00     0.051 C 
BRANCH  33  34
HETATM   34  C   UNK     0     -29.248 -21.709   0.832  0.00  0.00     0.114 C 
BRANCH  34  35
HETATM   35  C   UNK     0     -30.405 -22.649   0.864  0.00  0.00     0.139 C 
HETATM   36  O   UNK     0     -30.982 -22.985  -0.211  0.00  0.00    -0.650 OA
BRANCH  35  37
HETATM   37  O   UNK     0     -30.897 -23.193   2.044  0.00  0.00    -0.776 OA
HETATM   38  H   UNK     0     -31.828 -22.999   2.375  0.00  0.00     0.167 HD
ENDBRANCH  35  37
ENDBRANCH  34  35
ENDBRANCH  33  34
ENDBRANCH   6  33
BRANCH  27  39
HETATM   39  C   UNK     0     -23.539 -17.739  -6.297  0.00  0.00     0.051 C 
BRANCH  39  40
HETATM   40  C   UNK     0     -22.693 -16.588  -6.610  0.00  0.00     0.114 C 
BRANCH  40  41
HETATM   41  C   UNK     0     -23.191 -15.439  -7.332  0.00  0.00     0.139 C 
HETATM   42  O   UNK     0     -23.407 -15.440  -8.551  0.00  0.00    -0.650 OA
BRANCH  41  43
HETATM   43  O   UNK     0     -23.452 -14.235  -6.619  0.00  0.00    -0.776 OA
HETATM   44  H   UNK     0     -23.066 -13.402  -7.048  0.00  0.00     0.167 HD
ENDBRANCH  41  43
ENDBRANCH  40  41
ENDBRANCH  39  40
ENDBRANCH  27  39
BRANCH  11  45
HETATM   45  C   UNK     0     -33.754 -18.625  -5.849  0.00  0.00     0.051 C 
BRANCH  45  46
HETATM   46  C   UNK     0     -33.743 -17.171  -6.153  0.00  0.00     0.114 C 
BRANCH  46  47
HETATM   47  C   UNK     0     -34.999 -16.593  -5.595  0.00  0.00     0.139 C 
HETATM   48  O   UNK     0     -35.786 -17.346  -5.005  0.00  0.00    -0.650 OA
BRANCH  47  49
HETATM   49  O   UNK     0     -35.279 -15.257  -5.731  0.00  0.00    -0.776 OA
HETATM   50  H   UNK     0     -34.554 -14.535  -5.636  0.00  0.00     0.167 HD
ENDBRANCH  47  49
ENDBRANCH  46  47
ENDBRANCH  45  46
ENDBRANCH  11  45
BRANCH  18  51
HETATM   51  C   UNK     0     -28.471 -15.161  -8.823  0.00  0.00     0.051 C 
BRANCH  51  52
HETATM   52  C   UNK     0     -27.776 -15.534 -10.124  0.00  0.00     0.114 C 
BRANCH  52  53
HETATM   53  C   UNK     0     -28.460 -14.957 -11.298  0.00  0.00     0.139 C 
HETATM   54  O   UNK     0     -29.509 -15.468 -11.719  0.00  0.00    -0.650 OA
BRANCH  53  55
HETATM   55  O   UNK     0     -27.926 -13.855 -11.921  0.00  0.00    -0.776 OA
HETATM   56  H   UNK     0     -27.786 -12.962 -11.510  0.00  0.00     0.167 HD
ENDBRANCH  53  55
ENDBRANCH  52  53
ENDBRANCH  51  52
ENDBRANCH  18  51
TORSDOF 16
ENDMDL
MODEL 19
REMARK VINA RESULT:      -7.2     27.300     31.671
REMARK  16 active torsions:
REMARK  status: ('A' for Active; 'I' for Inactive)
REMARK    1  A    between atoms: C_6  and  C_7 
REMARK    2  A    between atoms: C_7  and  C_8 
REMARK    3  A    between atoms: C_8  and  C_9 
REMARK    4  A    between atoms: C_9  and  O_11 
REMARK    5  A    between atoms: C_16  and  C_17 
REMARK    6  A    between atoms: C_17  and  C_18 
REMARK    7  A    between atoms: C_18  and  C_19 
REMARK    8  A    between atoms: C_19  and  O_21 
REMARK    9  A    between atoms: C_28  and  C_29 
REMARK   10  A    between atoms: C_29  and  C_30 
REMARK   11  A    between atoms: C_30  and  C_31 
REMARK   12  A    between atoms: C_31  and  O_33 
REMARK   13  A    between atoms: C_42  and  C_43 
REMARK   14  A    between atoms: C_43  and  C_44 
REMARK   15  A    between atoms: C_44  and  C_45 
REMARK   16  A    between atoms: C_45  and  O_47 
ROOT
HETATM    1  C   UNK     0     -29.698  11.863   9.161  0.00  0.00     0.051 C 
HETATM    2  C   UNK     0     -29.377  10.582   9.904  0.00  0.00    -0.031 A 
HETATM    3  C   UNK     0     -28.508   9.559   9.557  0.00  0.00     0.021 A 
HETATM    4  N   UNK     0     -28.563   8.593  10.506  0.00  0.00    -0.361 N 
HETATM    5  C   UNK     0     -29.441   8.983  11.453  0.00  0.00     0.022 A 
HETATM    6  C   UNK     0     -29.970  10.222  11.107  0.00  0.00    -0.027 A 
HETATM    7  C   UNK     0     -29.794   8.327  12.751  0.00  0.00     0.115 C 
HETATM    8  C   UNK     0     -28.644   7.754  13.561  0.00  0.00     0.021 A 
HETATM    9  N   UNK     0     -27.397   8.231  13.695  0.00  0.00    -0.361 N 
HETATM   10  C   UNK     0     -26.688   7.351  14.433  0.00  0.00     0.022 A 
HETATM   11  C   UNK     0     -27.504   6.282  14.792  0.00  0.00    -0.027 A 
HETATM   12  C   UNK     0     -28.738   6.530  14.246  0.00  0.00    -0.031 A 
HETATM   13  C   UNK     0     -29.949   5.635  14.381  0.00  0.00     0.051 C 
HETATM   14  C   UNK     0     -25.206   7.455  14.782  0.00  0.00     0.115 C 
HETATM   15  C   UNK     0     -24.287   7.465  13.571  0.00  0.00     0.021 A 
HETATM   16  N   UNK     0     -24.288   8.338  12.547  0.00  0.00    -0.361 N 
HETATM   17  C   UNK     0     -23.374   7.962  11.649  0.00  0.00     0.022 A 
HETATM   18  C   UNK     0     -22.740   6.793  12.116  0.00  0.00    -0.027 A 
HETATM   19  C   UNK     0     -23.321   6.493  13.321  0.00  0.00    -0.031 A 
HETATM   20  C   UNK     0     -22.905   5.319  14.189  0.00  0.00     0.051 C 
HETATM   21  C   UNK     0     -23.033   8.556  10.302  0.00  0.00     0.115 C 
HETATM   22  C   UNK     0     -24.161   9.169   9.504  0.00  0.00     0.022 A 
HETATM   23  N   UNK     0     -25.413   8.718   9.357  0.00  0.00    -0.361 N 
HETATM   24  C   UNK     0     -26.121   9.648   8.685  0.00  0.00     0.021 A 
HETATM   25  C   UNK     0     -25.302  10.719   8.384  0.00  0.00    -0.031 A 
HETATM   26  C   UNK     0     -25.628  11.980   7.610  0.00  0.00     0.051 C 
HETATM   27  C   UNK     0     -24.042  10.435   8.897  0.00  0.00    -0.027 A 
HETATM   28  C   UNK     0     -27.605   9.630   8.359  0.00  0.00     0.115 C 
HETATM   29  H   UNK     0     -28.011   7.625  10.479  0.00  0.00     0.165 HD
HETATM   30  H   UNK     0     -27.027   9.214  13.312  0.00  0.00     0.165 HD
HETATM   31  H   UNK     0     -24.914   9.266  12.477  0.00  0.00     0.165 HD
HETATM   32  H   UNK     0     -25.798   7.719   9.688  0.00  0.00     0.165 HD
ENDROOT
BRANCH   6  33
HETATM   33  C   UNK     0     -30.987  11.076  11.821  0.00  0.00     0.051 C 
BRANCH  33  34
HETATM   34  C   UNK     0     -32.387  10.723  11.380  0.00  0.00     0.114 C 
BRANCH  34  35
HETATM   35  C   UNK     0     -33.030  11.976  10.889  0.00  0.00     0.139 C 
HETATM   36  O   UNK     0     -34.164  11.933  10.328  0.00  0.00    -0.650 OA
BRANCH  35  37
HETATM   37  O   UNK     0     -32.435  13.224  11.020  0.00  0.00    -0.776 OA
HETATM   38  H   UNK     0     -31.446  13.362  10.888  0.00  0.00     0.167 HD
ENDBRANCH  35  37
ENDBRANCH  34  35
ENDBRANCH  33  34
ENDBRANCH   6  33
BRANCH  27  39
HETATM   39  C   UNK     0     -22.869  11.331   8.707  0.00  0.00     0.051 C 
BRANCH  39  40
HETATM   40  C   UNK     0     -21.881  10.973   7.689  0.00  0.00     0.114 C 
BRANCH  40  41
HETATM   41  C   UNK     0     -20.944   9.887   7.872  0.00  0.00     0.139 C 
HETATM   42  O   UNK     0     -19.918   9.979   8.560  0.00  0.00    -0.650 OA
BRANCH  41  43
HETATM   43  O   UNK     0     -21.198   8.639   7.236  0.00  0.00    -0.776 OA
HETATM   44  H   UNK     0     -22.077   8.597   6.733  0.00  0.00     0.167 HD
ENDBRANCH  41  43
ENDBRANCH  40  41
ENDBRANCH  39  40
ENDBRANCH  27  39
BRANCH  11  45
HETATM   45  C   UNK     0     -27.160   5.070  15.615  0.00  0.00     0.051 C 
BRANCH  45  46
HETATM   46  C   UNK     0     -27.162   5.312  17.080  0.00  0.00     0.114 C 
BRANCH  46  47
HETATM   47  C   UNK     0     -28.326   4.572  17.648  0.00  0.00     0.139 C 
HETATM   48  O   UNK     0     -29.295   5.223  18.064  0.00  0.00    -0.650 OA
BRANCH  47  49
HETATM   49  O   UNK     0     -28.324   3.202  17.712  0.00  0.00    -0.776 OA
HETATM   50  H   UNK     0     -28.356   2.697  18.606  0.00  0.00     0.167 HD
ENDBRANCH  47  49
ENDBRANCH  46  47
ENDBRANCH  45  46
ENDBRANCH  11  45
BRANCH  18  51
HETATM   51  C   UNK     0     -21.628   6.017  11.460  0.00  0.00     0.051 C 
BRANCH  51  52
HETATM   52  C   UNK     0     -20.334   6.719  11.845  0.00  0.00     0.114 C 
BRANCH  52  53
HETATM   53  C   UNK     0     -19.494   7.007  10.666  0.00  0.00     0.139 C 
HETATM   54  O   UNK     0     -18.291   7.278  10.812  0.00  0.00    -0.650 OA
BRANCH  53  55
HETATM   55  O   UNK     0     -20.051   6.976   9.411  0.00  0.00    -0.776 OA
HETATM   56  H   UNK     0     -20.100   7.737   8.775  0.00  0.00     0.167 HD
ENDBRANCH  53  55
ENDBRANCH  52  53
ENDBRANCH  51  52
ENDBRANCH  18  51
TORSDOF 16
ENDMDL
MODEL 20
REMARK VINA RESULT:      -7.2     26.512     30.343
REMARK  16 active torsions:
REMARK  status: ('A' for Active; 'I' for Inactive)
REMARK    1  A    between atoms: C_6  and  C_7 
REMARK    2  A    between atoms: C_7  and  C_8 
REMARK    3  A    between atoms: C_8  and  C_9 
REMARK    4  A    between atoms: C_9  and  O_11 
REMARK    5  A    between atoms: C_16  and  C_17 
REMARK    6  A    between atoms: C_17  and  C_18 
REMARK    7  A    between atoms: C_18  and  C_19 
REMARK    8  A    between atoms: C_19  and  O_21 
REMARK    9  A    between atoms: C_28  and  C_29 
REMARK   10  A    between atoms: C_29  and  C_30 
REMARK   11  A    between atoms: C_30  and  C_31 
REMARK   12  A    between atoms: C_31  and  O_33 
REMARK   13  A    between atoms: C_42  and  C_43 
REMARK   14  A    between atoms: C_43  and  C_44 
REMARK   15  A    between atoms: C_44  and  C_45 
REMARK   16  A    between atoms: C_45  and  O_47 
ROOT
HETATM    1  C   UNK     0     -17.383   7.418  11.069  0.00  0.00     0.051 C 
HETATM    2  C   UNK     0     -18.290   8.157  10.107  0.00  0.00    -0.031 A 
HETATM    3  C   UNK     0     -19.440   7.719   9.469  0.00  0.00     0.021 A 
HETATM    4  N   UNK     0     -19.908   8.710   8.674  0.00  0.00    -0.361 N 
HETATM    5  C   UNK     0     -19.087   9.773   8.798  0.00  0.00     0.022 A 
HETATM    6  C   UNK     0     -18.063   9.461   9.685  0.00  0.00    -0.027 A 
HETATM    7  C   UNK     0     -19.209  11.144   8.209  0.00  0.00     0.115 C 
HETATM    8  C   UNK     0     -20.592  11.772   8.225  0.00  0.00     0.021 A 
HETATM    9  N   UNK     0     -21.548  11.665   9.160  0.00  0.00    -0.361 N 
HETATM   10  C   UNK     0     -22.645  12.314   8.714  0.00  0.00     0.022 A 
HETATM   11  C   UNK     0     -22.385  12.861   7.461  0.00  0.00    -0.027 A 
HETATM   12  C   UNK     0     -21.093  12.524   7.147  0.00  0.00    -0.031 A 
HETATM   13  C   UNK     0     -20.373  12.910   5.874  0.00  0.00     0.051 C 
HETATM   14  C   UNK     0     -23.993  12.398   9.424  0.00  0.00     0.115 C 
HETATM   15  C   UNK     0     -24.654  11.048   9.651  0.00  0.00     0.021 A 
HETATM   16  N   UNK     0     -24.162   9.996  10.332  0.00  0.00    -0.361 N 
HETATM   17  C   UNK     0     -25.018   8.976  10.240  0.00  0.00     0.022 A 
HETATM   18  C   UNK     0     -26.125   9.385   9.471  0.00  0.00    -0.027 A 
HETATM   19  C   UNK     0     -25.886  10.685   9.109  0.00  0.00    -0.031 A 
HETATM   20  C   UNK     0     -26.853  11.526   8.296  0.00  0.00     0.051 C 
HETATM   21  C   UNK     0     -24.902   7.561  10.762  0.00  0.00     0.115 C 
HETATM   22  C   UNK     0     -23.526   6.939  10.793  0.00  0.00     0.022 A 
HETATM   23  N   UNK     0     -22.552   7.032   9.878  0.00  0.00    -0.361 N 
HETATM   24  C   UNK     0     -21.445   6.446  10.377  0.00  0.00     0.021 A 
HETATM   25  C   UNK     0     -21.715   5.955  11.640  0.00  0.00    -0.031 A 
HETATM   26  C   UNK     0     -20.808   5.187  12.578  0.00  0.00     0.051 C 
HETATM   27  C   UNK     0     -23.041   6.258  11.928  0.00  0.00    -0.027 A 
HETATM   28  C   UNK     0     -20.064   6.381   9.748  0.00  0.00     0.115 C 
HETATM   29  H   UNK     0     -20.793   8.637   8.000  0.00  0.00     0.165 HD
HETATM   30  H   UNK     0     -21.436  11.176  10.158  0.00  0.00     0.165 HD
HETATM   31  H   UNK     0     -23.214   9.988  10.930  0.00  0.00     0.165 HD
HETATM   32  H   UNK     0     -22.650   7.475   8.853  0.00  0.00     0.165 HD
ENDROOT
BRANCH   6  33
HETATM   33  C   UNK     0     -16.898  10.295  10.154  0.00  0.00     0.051 C 
BRANCH  33  34
HETATM   34  C   UNK     0     -15.758  10.227   9.165  0.00  0.00     0.114 C 
BRANCH  34  35
HETATM   35  C   UNK     0     -14.571   9.688   9.889  0.00  0.00     0.139 C 
HETATM   36  O   UNK     0     -14.266   8.464   9.789  0.00  0.00    -0.650 OA
BRANCH  35  37
HETATM   37  O   UNK     0     -13.756  10.482  10.687  0.00  0.00    -0.776 OA
HETATM   38  H   UNK     0     -12.936  10.116  11.144  0.00  0.00     0.167 HD
ENDBRANCH  35  37
ENDBRANCH  34  35
ENDBRANCH  33  34
ENDBRANCH   6  33
BRANCH  27  39
HETATM   39  C   UNK     0     -23.718   5.824  13.180  0.00  0.00     0.051 C 
BRANCH  39  40
HETATM   40  C   UNK     0     -23.471   6.587  14.403  0.00  0.00     0.114 C 
BRANCH  40  41
HETATM   41  C   UNK     0     -23.054   5.955  15.635  0.00  0.00     0.139 C 
HETATM   42  O   UNK     0     -21.951   5.412  15.785  0.00  0.00    -0.650 OA
BRANCH  41  43
HETATM   43  O   UNK     0     -23.946   5.947  16.744  0.00  0.00    -0.776 OA
HETATM   44  H   UNK     0     -24.746   5.335  16.634  0.00  0.00     0.167 HD
ENDBRANCH  41  43
ENDBRANCH  40  41
ENDBRANCH  39  40
ENDBRANCH  27  39
BRANCH  11  45
HETATM   45  C   UNK     0     -23.296  13.673   6.580  0.00  0.00     0.051 C 
BRANCH  45  46
HETATM   46  C   UNK     0     -23.425  15.095   6.988  0.00  0.00     0.114 C 
BRANCH  46  47
HETATM   47  C   UNK     0     -24.852  15.482   6.797  0.00  0.00     0.139 C 
HETATM   48  O   UNK     0     -25.641  14.636   6.354  0.00  0.00    -0.650 OA
BRANCH  47  49
HETATM   49  O   UNK     0     -25.283  16.748   7.102  0.00  0.00    -0.776 OA
HETATM   50  H   UNK     0     -26.245  17.056   6.916  0.00  0.00     0.167 HD
ENDBRANCH  47  49
ENDBRANCH  46  47
ENDBRANCH  45  46
ENDBRANCH  11  45
BRANCH  18  51
HETATM   51  C   UNK     0     -27.353   8.587   9.117  0.00  0.00     0.051 C 
BRANCH  51  52
HETATM   52  C   UNK     0     -28.085   8.331  10.426  0.00  0.00     0.114 C 
BRANCH  52  53
HETATM   53  C   UNK     0     -29.413   8.975  10.449  0.00  0.00     0.139 C 
HETATM   54  O   UNK     0     -30.376   8.395  10.974  0.00  0.00    -0.650 OA
BRANCH  53  55
HETATM   55  O   UNK     0     -29.575  10.216   9.883  0.00  0.00    -0.776 OA
HETATM   56  H   UNK     0     -30.299  10.863  10.091  0.00  0.00     0.167 HD
ENDBRANCH  53  55
ENDBRANCH  52  53
ENDBRANCH  51  52
ENDBRANCH  18  51
TORSDOF 16
ENDMDL
