MODEL 1
REMARK VINA RESULT:      -8.9      0.000      0.000
REMARK  28 active torsions:
REMARK  status: ('A' for Active; 'I' for Inactive)
REMARK    1  A    between atoms: C_2  and  O_3 
REMARK    2  A    between atoms: C_2  and  C_4 
REMARK    3  A    between atoms: C_4  and  C_5 
REMARK    4  A    between atoms: C_5  and  C_6 
REMARK    5  A    between atoms: C_7  and  C_8 
REMARK    6  A    between atoms: C_8  and  C_9 
REMARK    7  A    between atoms: C_9  and  O_11 
REMARK    8  A    between atoms: C_28  and  C_29 
REMARK    9  A    between atoms: C_29  and  C_30 
REMARK   10  A    between atoms: C_30  and  O_32 
REMARK   11  A    between atoms: C_33  and  C_34 
REMARK   12  A    between atoms: C_34  and  C_35 
REMARK   13  A    between atoms: C_35  and  C_36 
REMARK   14  A    between atoms: C_36  and  O_38 
REMARK   15  A    between atoms: C_39  and  C_40 
REMARK   16  A    between atoms: C_40  and  C_41 
REMARK   17  A    between atoms: C_41  and  C_42 
REMARK   18  A    between atoms: C_42  and  O_44 
REMARK   19  A    between atoms: C_45  and  C_46 
REMARK   20  A    between atoms: C_46  and  C_47 
REMARK   21  A    between atoms: C_47  and  O_49 
REMARK   22  A    between atoms: C_50  and  C_51 
REMARK   23  A    between atoms: C_51  and  C_52 
REMARK   24  A    between atoms: C_52  and  O_54 
REMARK   25  A    between atoms: C_55  and  C_56 
REMARK   26  A    between atoms: C_56  and  C_57 
REMARK   27  A    between atoms: C_57  and  C_58 
REMARK   28  A    between atoms: C_58  and  O_60 
ROOT
ATOM      1  O   UNK d   0     -20.056  26.383  22.707  0.00  0.00    -0.650 OA
ATOM      2  C   UNK d   0     -18.954  26.969  22.787  0.00  0.00     0.139 C 
ENDROOT
BRANCH   2   3
ATOM      3  O   UNK d   0     -18.665  27.711  23.907  0.00  0.00    -0.776 OA
ATOM      4  H   UNK d   0     -17.738  27.681  24.335  0.00  0.00     0.167 HD
ENDBRANCH   2   3
BRANCH   2   5
ATOM      5  C   UNK d   0     -17.967  26.861  21.676  0.00  0.00     0.115 C 
BRANCH   5   6
ATOM      6  C   UNK d   0     -17.825  28.187  20.979  0.00  0.00     0.052 C 
BRANCH   6   7
ATOM      7  C   UNK d   0     -19.141  28.712  20.456  0.00  0.00    -0.020 A 
ATOM      8  C   UNK d   0     -19.764  29.804  20.818  0.00  0.00    -0.011 A 
ATOM      9  C   UNK d   0     -20.995  29.889  20.049  0.00  0.00     0.067 A 
ATOM     10  C   UNK d   0     -22.064  30.793  19.946  0.00  0.00     0.062 C 
ATOM     11  N   UNK d   0     -21.042  28.804  19.248  0.00  0.00    -0.248 NA
ATOM     12  C   UNK d   0     -23.033  30.847  18.938  0.00  0.00     0.041 A 
ATOM     13  N   UNK d   0     -23.727  29.871  18.322  0.00  0.00    -0.355 N 
ATOM     14  C   UNK d   0     -23.363  32.094  18.377  0.00  0.00    -0.022 A 
ATOM     15  C   UNK d   0     -24.482  30.465  17.379  0.00  0.00     0.042 A 
ATOM     16  H   UNK d   0     -23.698  28.785  18.562  0.00  0.00     0.166 HD
ATOM     17  C   UNK d   0     -25.391  29.913  16.455  0.00  0.00     0.062 C 
ATOM     18  C   UNK d   0     -24.281  31.859  17.383  0.00  0.00    -0.013 A 
ATOM     19  C   UNK d   0     -25.249  28.801  15.665  0.00  0.00     0.067 A 
ATOM     20  N   UNK d   0     -24.209  28.004  15.924  0.00  0.00    -0.248 NA
ATOM     21  C   UNK d   0     -25.962  28.221  14.539  0.00  0.00    -0.011 A 
ATOM     22  C   UNK d   0     -24.189  26.947  15.048  0.00  0.00     0.066 A 
ATOM     23  C   UNK d   0     -23.177  26.016  15.228  0.00  0.00     0.062 C 
ATOM     24  C   UNK d   0     -25.335  27.139  14.180  0.00  0.00    -0.020 A 
ATOM     25  C   UNK d   0     -22.220  25.973  16.254  0.00  0.00     0.041 A 
ATOM     26  N   UNK d   0     -21.520  26.942  16.857  0.00  0.00    -0.355 N 
ATOM     27  C   UNK d   0     -21.893  24.721  16.820  0.00  0.00    -0.022 A 
ATOM     28  C   UNK d   0     -20.760  26.350  17.791  0.00  0.00     0.042 A 
ATOM     29  H   UNK d   0     -21.543  28.031  16.607  0.00  0.00     0.166 HD
ATOM     30  C   UNK d   0     -19.845  26.886  18.711  0.00  0.00     0.062 C 
ATOM     31  C   UNK d   0     -20.970  24.951  17.794  0.00  0.00    -0.013 A 
ATOM     32  C   UNK d   0     -19.956  28.056  19.444  0.00  0.00     0.066 A 
BRANCH   8  33
ATOM     33  C   UNK d   0     -19.321  30.784  21.826  0.00  0.00     0.151 C 
BRANCH  33  34
ATOM     34  C   UNK d   0     -20.223  30.854  22.990  0.00  0.00     0.143 C 
ATOM     35  O   UNK d   0     -20.728  29.828  23.466  0.00  0.00    -0.650 OA
BRANCH  34  36
ATOM     36  O   UNK d   0     -20.508  32.078  23.551  0.00  0.00    -0.776 OA
ATOM     37  H   UNK d   0     -20.656  32.912  22.967  0.00  0.00     0.167 HD
ENDBRANCH  34  36
ENDBRANCH  33  34
ENDBRANCH   8  33
BRANCH  31  38
ATOM     38  C   UNK d   0     -20.335  23.908  18.684  0.00  0.00     0.151 C 
BRANCH  38  39
ATOM     39  C   UNK d   0     -20.957  23.828  19.988  0.00  0.00     0.143 C 
ATOM     40  O   UNK d   0     -22.176  23.624  20.133  0.00  0.00    -0.650 OA
BRANCH  39  41
ATOM     41  O   UNK d   0     -20.175  23.982  21.132  0.00  0.00    -0.776 OA
ATOM     42  H   UNK d   0     -20.188  23.212  21.808  0.00  0.00     0.167 HD
ENDBRANCH  39  41
ENDBRANCH  38  39
ENDBRANCH  31  38
BRANCH  27  43
ATOM     43  C   UNK d   0     -22.413  23.348  16.475  0.00  0.00     0.052 C 
BRANCH  43  44
ATOM     44  C   UNK d   0     -21.544  22.614  15.506  0.00  0.00     0.115 C 
BRANCH  44  45
ATOM     45  C   UNK d   0     -22.429  22.158  14.402  0.00  0.00     0.139 C 
ATOM     46  O   UNK d   0     -23.168  21.165  14.609  0.00  0.00    -0.650 OA
BRANCH  45  47
ATOM     47  O   UNK d   0     -22.472  22.782  13.174  0.00  0.00    -0.776 OA
ATOM     48  H   UNK d   0     -21.624  23.006  12.629  0.00  0.00     0.167 HD
ENDBRANCH  45  47
ENDBRANCH  44  45
ENDBRANCH  43  44
ENDBRANCH  27  43
BRANCH  24  49
ATOM     49  C   UNK d   0     -25.737  26.218  13.103  0.00  0.00     0.052 C 
BRANCH  49  50
ATOM     50  C   UNK d   0     -26.522  25.062  13.667  0.00  0.00     0.115 C 
BRANCH  50  51
ATOM     51  C   UNK d   0     -25.902  23.745  13.606  0.00  0.00     0.139 C 
ATOM     52  O   UNK d   0     -25.896  22.954  14.579  0.00  0.00    -0.650 OA
BRANCH  51  53
ATOM     53  O   UNK d   0     -25.288  23.330  12.434  0.00  0.00    -0.776 OA
ATOM     54  H   UNK d   0     -25.837  22.824  11.762  0.00  0.00     0.167 HD
ENDBRANCH  51  53
ENDBRANCH  50  51
ENDBRANCH  49  50
ENDBRANCH  24  49
BRANCH  21  55
ATOM     55  C   UNK d   0     -27.199  28.807  13.943  0.00  0.00     0.151 C 
BRANCH  55  56
ATOM     56  C   UNK d   0     -28.418  28.297  14.590  0.00  0.00     0.143 C 
ATOM     57  O   UNK d   0     -29.132  27.411  14.080  0.00  0.00    -0.650 OA
BRANCH  56  58
ATOM     58  O   UNK d   0     -28.773  28.839  15.824  0.00  0.00    -0.776 OA
ATOM     59  H   UNK d   0     -28.804  29.874  15.853  0.00  0.00     0.167 HD
ENDBRANCH  56  58
ENDBRANCH  55  56
ENDBRANCH  21  55
BRANCH  18  60
ATOM     60  C   UNK d   0     -24.902  32.922  16.511  0.00  0.00     0.151 C 
BRANCH  60  61
ATOM     61  C   UNK d   0     -24.084  32.971  15.290  0.00  0.00     0.143 C 
ATOM     62  O   UNK d   0     -23.879  32.052  14.497  0.00  0.00    -0.650 OA
BRANCH  61  63
ATOM     63  O   UNK d   0     -23.478  34.222  15.020  0.00  0.00    -0.776 OA
ATOM     64  H   UNK d   0     -22.573  34.277  14.587  0.00  0.00     0.167 HD
ENDBRANCH  61  63
ENDBRANCH  60  61
ENDBRANCH  18  60
BRANCH  14  65
ATOM     65  C   UNK d   0     -22.955  33.485  18.771  0.00  0.00     0.052 C 
BRANCH  65  66
ATOM     66  C   UNK d   0     -21.480  33.662  18.838  0.00  0.00     0.115 C 
BRANCH  66  67
ATOM     67  C   UNK d   0     -20.778  34.217  17.715  0.00  0.00     0.139 C 
ATOM     68  O   UNK d   0     -21.262  34.036  16.538  0.00  0.00    -0.650 OA
BRANCH  67  69
ATOM     69  O   UNK d   0     -19.595  34.955  17.728  0.00  0.00    -0.776 OA
ATOM     70  H   UNK d   0     -19.705  35.979  17.723  0.00  0.00     0.167 HD
ENDBRANCH  67  69
ENDBRANCH  66  67
ENDBRANCH  65  66
ENDBRANCH  14  65
ENDBRANCH   6   7
ENDBRANCH   5   6
ENDBRANCH   2   5
TORSDOF 28
ENDMDL
MODEL 2
REMARK VINA RESULT:      -8.0      2.324      8.128
REMARK  28 active torsions:
REMARK  status: ('A' for Active; 'I' for Inactive)
REMARK    1  A    between atoms: C_2  and  O_3 
REMARK    2  A    between atoms: C_2  and  C_4 
REMARK    3  A    between atoms: C_4  and  C_5 
REMARK    4  A    between atoms: C_5  and  C_6 
REMARK    5  A    between atoms: C_7  and  C_8 
REMARK    6  A    between atoms: C_8  and  C_9 
REMARK    7  A    between atoms: C_9  and  O_11 
REMARK    8  A    between atoms: C_28  and  C_29 
REMARK    9  A    between atoms: C_29  and  C_30 
REMARK   10  A    between atoms: C_30  and  O_32 
REMARK   11  A    between atoms: C_33  and  C_34 
REMARK   12  A    between atoms: C_34  and  C_35 
REMARK   13  A    between atoms: C_35  and  C_36 
REMARK   14  A    between atoms: C_36  and  O_38 
REMARK   15  A    between atoms: C_39  and  C_40 
REMARK   16  A    between atoms: C_40  and  C_41 
REMARK   17  A    between atoms: C_41  and  C_42 
REMARK   18  A    between atoms: C_42  and  O_44 
REMARK   19  A    between atoms: C_45  and  C_46 
REMARK   20  A    between atoms: C_46  and  C_47 
REMARK   21  A    between atoms: C_47  and  O_49 
REMARK   22  A    between atoms: C_50  and  C_51 
REMARK   23  A    between atoms: C_51  and  C_52 
REMARK   24  A    between atoms: C_52  and  O_54 
REMARK   25  A    between atoms: C_55  and  C_56 
REMARK   26  A    between atoms: C_56  and  C_57 
REMARK   27  A    between atoms: C_57  and  C_58 
REMARK   28  A    between atoms: C_58  and  O_60 
ROOT
ATOM      1  O   UNK d   0     -17.124  23.304  24.719  0.00  0.00    -0.650 OA
ATOM      2  C   UNK d   0     -17.825  22.671  23.899  0.00  0.00     0.139 C 
ENDROOT
BRANCH   2   3
ATOM      3  O   UNK d   0     -17.879  21.300  23.975  0.00  0.00    -0.776 OA
ATOM      4  H   UNK d   0     -17.302  20.786  24.644  0.00  0.00     0.167 HD
ENDBRANCH   2   3
BRANCH   2   5
ATOM      5  C   UNK d   0     -18.592  23.401  22.850  0.00  0.00     0.115 C 
BRANCH   5   6
ATOM      6  C   UNK d   0     -19.448  22.439  22.071  0.00  0.00     0.052 C 
BRANCH   6   7
ATOM      7  C   UNK d   0     -19.850  22.982  20.720  0.00  0.00    -0.020 A 
ATOM      8  C   UNK d   0     -19.709  22.406  19.554  0.00  0.00    -0.011 A 
ATOM      9  C   UNK d   0     -20.233  23.311  18.544  0.00  0.00     0.067 A 
ATOM     10  C   UNK d   0     -20.394  23.288  17.150  0.00  0.00     0.062 C 
ATOM     11  N   UNK d   0     -20.668  24.416  19.184  0.00  0.00    -0.248 NA
ATOM     12  C   UNK d   0     -21.180  24.146  16.374  0.00  0.00     0.041 A 
ATOM     13  N   UNK d   0     -21.355  25.480  16.428  0.00  0.00    -0.355 N 
ATOM     14  C   UNK d   0     -22.005  23.597  15.375  0.00  0.00    -0.022 A 
ATOM     15  C   UNK d   0     -22.275  25.790  15.495  0.00  0.00     0.042 A 
ATOM     16  H   UNK d   0     -20.825  26.191  17.100  0.00  0.00     0.166 HD
ATOM     17  C   UNK d   0     -22.822  27.037  15.131  0.00  0.00     0.062 C 
ATOM     18  C   UNK d   0     -22.706  24.635  14.815  0.00  0.00    -0.013 A 
ATOM     19  C   UNK d   0     -23.273  28.050  15.938  0.00  0.00     0.067 A 
ATOM     20  N   UNK d   0     -22.992  27.957  17.240  0.00  0.00    -0.248 NA
ATOM     21  C   UNK d   0     -24.037  29.272  15.752  0.00  0.00    -0.011 A 
ATOM     22  C   UNK d   0     -23.517  29.028  17.919  0.00  0.00     0.066 A 
ATOM     23  C   UNK d   0     -23.266  29.078  19.282  0.00  0.00     0.062 C 
ATOM     24  C   UNK d   0     -24.180  29.838  16.915  0.00  0.00    -0.020 A 
ATOM     25  C   UNK d   0     -22.462  28.213  20.041  0.00  0.00     0.041 A 
ATOM     26  N   UNK d   0     -22.299  26.885  19.997  0.00  0.00    -0.355 N 
ATOM     27  C   UNK d   0     -21.631  28.766  21.040  0.00  0.00    -0.022 A 
ATOM     28  C   UNK d   0     -21.389  26.572  20.933  0.00  0.00     0.042 A 
ATOM     29  H   UNK d   0     -22.841  26.171  19.329  0.00  0.00     0.166 HD
ATOM     30  C   UNK d   0     -20.843  25.336  21.312  0.00  0.00     0.062 C 
ATOM     31  C   UNK d   0     -20.949  27.735  21.609  0.00  0.00    -0.013 A 
ATOM     32  C   UNK d   0     -20.467  24.281  20.496  0.00  0.00     0.066 A 
BRANCH   8  33
ATOM     33  C   UNK d   0     -19.120  21.080  19.287  0.00  0.00     0.151 C 
BRANCH  33  34
ATOM     34  C   UNK d   0     -20.057  19.975  19.561  0.00  0.00     0.143 C 
ATOM     35  O   UNK d   0     -19.669  18.934  20.110  0.00  0.00    -0.650 OA
BRANCH  34  36
ATOM     36  O   UNK d   0     -21.378  20.104  19.199  0.00  0.00    -0.776 OA
ATOM     37  H   UNK d   0     -21.947  20.896  19.528  0.00  0.00     0.167 HD
ENDBRANCH  34  36
ENDBRANCH  33  34
ENDBRANCH   8  33
BRANCH  31  38
ATOM     38  C   UNK d   0     -19.929  27.846  22.718  0.00  0.00     0.151 C 
BRANCH  38  39
ATOM     39  C   UNK d   0     -18.567  27.724  22.244  0.00  0.00     0.143 C 
ATOM     40  O   UNK d   0     -17.797  26.836  22.652  0.00  0.00    -0.650 OA
BRANCH  39  41
ATOM     41  O   UNK d   0     -18.088  28.626  21.295  0.00  0.00    -0.776 OA
ATOM     42  H   UNK d   0     -17.107  28.908  21.381  0.00  0.00     0.167 HD
ENDBRANCH  39  41
ENDBRANCH  38  39
ENDBRANCH  31  38
BRANCH  27  43
ATOM     43  C   UNK d   0     -21.470  30.204  21.464  0.00  0.00     0.052 C 
BRANCH  43  44
ATOM     44  C   UNK d   0     -20.573  30.989  20.563  0.00  0.00     0.115 C 
BRANCH  44  45
ATOM     45  C   UNK d   0     -21.277  32.263  20.267  0.00  0.00     0.139 C 
ATOM     46  O   UNK d   0     -22.388  32.467  20.817  0.00  0.00    -0.650 OA
BRANCH  45  47
ATOM     47  O   UNK d   0     -20.762  33.223  19.423  0.00  0.00    -0.776 OA
ATOM     48  H   UNK d   0     -19.866  33.704  19.603  0.00  0.00     0.167 HD
ENDBRANCH  45  47
ENDBRANCH  44  45
ENDBRANCH  43  44
ENDBRANCH  27  43
BRANCH  24  49
ATOM     49  C   UNK d   0     -24.858  31.119  17.181  0.00  0.00     0.052 C 
BRANCH  49  50
ATOM     50  C   UNK d   0     -23.870  32.140  17.684  0.00  0.00     0.115 C 
BRANCH  50  51
ATOM     51  C   UNK d   0     -23.625  33.301  16.838  0.00  0.00     0.139 C 
ATOM     52  O   UNK d   0     -24.547  33.917  16.252  0.00  0.00    -0.650 OA
BRANCH  51  53
ATOM     53  O   UNK d   0     -22.329  33.757  16.657  0.00  0.00    -0.776 OA
ATOM     54  H   UNK d   0     -21.842  33.486  15.821  0.00  0.00     0.167 HD
ENDBRANCH  51  53
ENDBRANCH  50  51
ENDBRANCH  49  50
ENDBRANCH  24  49
BRANCH  21  55
ATOM     55  C   UNK d   0     -24.541  29.749  14.430  0.00  0.00     0.151 C 
BRANCH  55  56
ATOM     56  C   UNK d   0     -25.793  29.081  14.043  0.00  0.00     0.143 C 
ATOM     57  O   UNK d   0     -26.911  29.461  14.441  0.00  0.00    -0.650 OA
BRANCH  56  58
ATOM     58  O   UNK d   0     -25.705  27.979  13.195  0.00  0.00    -0.776 OA
ATOM     59  H   UNK d   0     -25.044  27.243  13.503  0.00  0.00     0.167 HD
ENDBRANCH  56  58
ENDBRANCH  55  56
ENDBRANCH  21  55
BRANCH  18  60
ATOM     60  C   UNK d   0     -23.717  24.495  13.704  0.00  0.00     0.151 C 
BRANCH  60  61
ATOM     61  C   UNK d   0     -25.009  24.249  14.362  0.00  0.00     0.143 C 
ATOM     62  O   UNK d   0     -25.587  24.986  15.161  0.00  0.00    -0.650 OA
BRANCH  61  63
ATOM     63  O   UNK d   0     -25.634  23.025  14.023  0.00  0.00    -0.776 OA
ATOM     64  H   UNK d   0     -25.338  22.159  14.438  0.00  0.00     0.167 HD
ENDBRANCH  61  63
ENDBRANCH  60  61
ENDBRANCH  18  60
BRANCH  14  65
ATOM     65  C   UNK d   0     -22.106  22.193  14.850  0.00  0.00     0.052 C 
BRANCH  65  66
ATOM     66  C   UNK d   0     -23.041  21.344  15.635  0.00  0.00     0.115 C 
BRANCH  66  67
ATOM     67  C   UNK d   0     -23.618  20.175  15.033  0.00  0.00     0.139 C 
ATOM     68  O   UNK d   0     -24.725  20.298  14.392  0.00  0.00    -0.650 OA
BRANCH  67  69
ATOM     69  O   UNK d   0     -23.120  18.872  15.050  0.00  0.00    -0.776 OA
ATOM     70  H   UNK d   0     -22.223  18.729  14.563  0.00  0.00     0.167 HD
ENDBRANCH  67  69
ENDBRANCH  66  67
ENDBRANCH  65  66
ENDBRANCH  14  65
ENDBRANCH   6   7
ENDBRANCH   5   6
ENDBRANCH   2   5
TORSDOF 28
ENDMDL
MODEL 3
REMARK VINA RESULT:      -7.8      1.261      7.282
REMARK  28 active torsions:
REMARK  status: ('A' for Active; 'I' for Inactive)
REMARK    1  A    between atoms: C_2  and  O_3 
REMARK    2  A    between atoms: C_2  and  C_4 
REMARK    3  A    between atoms: C_4  and  C_5 
REMARK    4  A    between atoms: C_5  and  C_6 
REMARK    5  A    between atoms: C_7  and  C_8 
REMARK    6  A    between atoms: C_8  and  C_9 
REMARK    7  A    between atoms: C_9  and  O_11 
REMARK    8  A    between atoms: C_28  and  C_29 
REMARK    9  A    between atoms: C_29  and  C_30 
REMARK   10  A    between atoms: C_30  and  O_32 
REMARK   11  A    between atoms: C_33  and  C_34 
REMARK   12  A    between atoms: C_34  and  C_35 
REMARK   13  A    between atoms: C_35  and  C_36 
REMARK   14  A    between atoms: C_36  and  O_38 
REMARK   15  A    between atoms: C_39  and  C_40 
REMARK   16  A    between atoms: C_40  and  C_41 
REMARK   17  A    between atoms: C_41  and  C_42 
REMARK   18  A    between atoms: C_42  and  O_44 
REMARK   19  A    between atoms: C_45  and  C_46 
REMARK   20  A    between atoms: C_46  and  C_47 
REMARK   21  A    between atoms: C_47  and  O_49 
REMARK   22  A    between atoms: C_50  and  C_51 
REMARK   23  A    between atoms: C_51  and  C_52 
REMARK   24  A    between atoms: C_52  and  O_54 
REMARK   25  A    between atoms: C_55  and  C_56 
REMARK   26  A    between atoms: C_56  and  C_57 
REMARK   27  A    between atoms: C_57  and  C_58 
REMARK   28  A    between atoms: C_58  and  O_60 
ROOT
ATOM      1  O   UNK d   0     -20.257  31.800  24.308  0.00  0.00    -0.650 OA
ATOM      2  C   UNK d   0     -19.187  31.896  23.667  0.00  0.00     0.139 C 
ENDROOT
BRANCH   2   3
ATOM      3  O   UNK d   0     -18.251  32.825  24.055  0.00  0.00    -0.776 OA
ATOM      4  H   UNK d   0     -17.334  32.869  23.606  0.00  0.00     0.167 HD
ENDBRANCH   2   3
BRANCH   2   5
ATOM      5  C   UNK d   0     -18.934  31.011  22.495  0.00  0.00     0.115 C 
BRANCH   5   6
ATOM      6  C   UNK d   0     -19.501  29.641  22.750  0.00  0.00     0.052 C 
BRANCH   6   7
ATOM      7  C   UNK d   0     -19.793  28.886  21.474  0.00  0.00    -0.020 A 
ATOM      8  C   UNK d   0     -19.170  27.834  21.009  0.00  0.00    -0.011 A 
ATOM      9  C   UNK d   0     -19.798  27.466  19.750  0.00  0.00     0.067 A 
ATOM     10  C   UNK d   0     -19.627  26.456  18.791  0.00  0.00     0.062 C 
ATOM     11  N   UNK d   0     -20.790  28.352  19.524  0.00  0.00    -0.248 NA
ATOM     12  C   UNK d   0     -20.516  26.096  17.772  0.00  0.00     0.041 A 
ATOM     13  N   UNK d   0     -21.250  26.848  16.930  0.00  0.00    -0.355 N 
ATOM     14  C   UNK d   0     -20.789  24.733  17.557  0.00  0.00    -0.022 A 
ATOM     15  C   UNK d   0     -21.988  25.997  16.192  0.00  0.00     0.042 A 
ATOM     16  H   UNK d   0     -21.233  27.957  16.846  0.00  0.00     0.166 HD
ATOM     17  C   UNK d   0     -22.921  26.251  15.167  0.00  0.00     0.062 C 
ATOM     18  C   UNK d   0     -21.726  24.663  16.556  0.00  0.00    -0.013 A 
ATOM     19  C   UNK d   0     -23.924  27.185  15.125  0.00  0.00     0.067 A 
ATOM     20  N   UNK d   0     -23.919  28.120  16.078  0.00  0.00    -0.248 NA
ATOM     21  C   UNK d   0     -25.076  27.444  14.277  0.00  0.00    -0.011 A 
ATOM     22  C   UNK d   0     -24.985  28.971  15.916  0.00  0.00     0.066 A 
ATOM     23  C   UNK d   0     -25.080  30.018  16.821  0.00  0.00     0.062 C 
ATOM     24  C   UNK d   0     -25.695  28.488  14.748  0.00  0.00    -0.020 A 
ATOM     25  C   UNK d   0     -24.170  30.370  17.830  0.00  0.00     0.041 A 
ATOM     26  N   UNK d   0     -23.451  29.623  18.677  0.00  0.00    -0.355 N 
ATOM     27  C   UNK d   0     -23.893  31.738  18.042  0.00  0.00    -0.022 A 
ATOM     28  C   UNK d   0     -22.722  30.470  19.420  0.00  0.00     0.042 A 
ATOM     29  H   UNK d   0     -23.478  28.509  18.767  0.00  0.00     0.166 HD
ATOM     30  C   UNK d   0     -21.797  30.232  20.449  0.00  0.00     0.062 C 
ATOM     31  C   UNK d   0     -22.977  31.810  19.046  0.00  0.00    -0.013 A 
ATOM     32  C   UNK d   0     -20.840  29.232  20.525  0.00  0.00     0.066 A 
BRANCH   8  33
ATOM     33  C   UNK d   0     -18.030  27.134  21.629  0.00  0.00     0.151 C 
BRANCH  33  34
ATOM     34  C   UNK d   0     -18.452  26.067  22.555  0.00  0.00     0.143 C 
ATOM     35  O   UNK d   0     -17.892  25.918  23.651  0.00  0.00    -0.650 OA
BRANCH  34  36
ATOM     36  O   UNK d   0     -19.479  25.226  22.194  0.00  0.00    -0.776 OA
ATOM     37  H   UNK d   0     -20.310  25.579  21.700  0.00  0.00     0.167 HD
ENDBRANCH  34  36
ENDBRANCH  33  34
ENDBRANCH   8  33
BRANCH  31  38
ATOM     38  C   UNK d   0     -22.370  33.074  19.609  0.00  0.00     0.151 C 
BRANCH  38  39
ATOM     39  C   UNK d   0     -21.185  33.495  18.893  0.00  0.00     0.143 C 
ATOM     40  O   UNK d   0     -21.226  34.333  17.974  0.00  0.00    -0.650 OA
BRANCH  39  41
ATOM     41  O   UNK d   0     -19.947  32.952  19.234  0.00  0.00    -0.776 OA
ATOM     42  H   UNK d   0     -19.927  31.951  19.455  0.00  0.00     0.167 HD
ENDBRANCH  39  41
ENDBRANCH  38  39
ENDBRANCH  31  38
BRANCH  27  43
ATOM     43  C   UNK d   0     -24.457  32.950  17.343  0.00  0.00     0.052 C 
BRANCH  43  44
ATOM     44  C   UNK d   0     -24.644  32.750  15.874  0.00  0.00     0.115 C 
BRANCH  44  45
ATOM     45  C   UNK d   0     -23.929  33.865  15.199  0.00  0.00     0.139 C 
ATOM     46  O   UNK d   0     -24.484  34.415  14.216  0.00  0.00    -0.650 OA
BRANCH  45  47
ATOM     47  O   UNK d   0     -22.695  34.318  15.611  0.00  0.00    -0.776 OA
ATOM     48  H   UNK d   0     -22.041  33.740  16.163  0.00  0.00     0.167 HD
ENDBRANCH  45  47
ENDBRANCH  44  45
ENDBRANCH  43  44
ENDBRANCH  27  43
BRANCH  24  49
ATOM     49  C   UNK d   0     -26.893  29.120  14.172  0.00  0.00     0.052 C 
BRANCH  49  50
ATOM     50  C   UNK d   0     -28.134  28.379  14.598  0.00  0.00     0.115 C 
BRANCH  50  51
ATOM     51  C   UNK d   0     -28.449  28.372  16.021  0.00  0.00     0.139 C 
ATOM     52  O   UNK d   0     -28.477  27.319  16.702  0.00  0.00    -0.650 OA
BRANCH  51  53
ATOM     53  O   UNK d   0     -28.734  29.565  16.666  0.00  0.00    -0.776 OA
ATOM     54  H   UNK d   0     -28.575  30.424  16.170  0.00  0.00     0.167 HD
ENDBRANCH  51  53
ENDBRANCH  50  51
ENDBRANCH  49  50
ENDBRANCH  24  49
BRANCH  21  55
ATOM     55  C   UNK d   0     -25.435  26.624  13.083  0.00  0.00     0.151 C 
BRANCH  55  56
ATOM     56  C   UNK d   0     -25.856  25.264  13.454  0.00  0.00     0.143 C 
ATOM     57  O   UNK d   0     -26.640  25.034  14.396  0.00  0.00    -0.650 OA
BRANCH  56  58
ATOM     58  O   UNK d   0     -25.348  24.201  12.710  0.00  0.00    -0.776 OA
ATOM     59  H   UNK d   0     -25.754  24.098  11.762  0.00  0.00     0.167 HD
ENDBRANCH  56  58
ENDBRANCH  55  56
ENDBRANCH  21  55
BRANCH  18  60
ATOM     60  C   UNK d   0     -22.313  23.385  16.011  0.00  0.00     0.151 C 
BRANCH  60  61
ATOM     61  C   UNK d   0     -23.661  23.280  16.591  0.00  0.00     0.143 C 
ATOM     62  O   UNK d   0     -23.962  23.343  17.783  0.00  0.00    -0.650 OA
BRANCH  61  63
ATOM     63  O   UNK d   0     -24.706  23.086  15.656  0.00  0.00    -0.776 OA
ATOM     64  H   UNK d   0     -24.624  23.418  14.711  0.00  0.00     0.167 HD
ENDBRANCH  61  63
ENDBRANCH  60  61
ENDBRANCH  18  60
BRANCH  14  65
ATOM     65  C   UNK d   0     -20.165  23.502  18.151  0.00  0.00     0.052 C 
BRANCH  65  66
ATOM     66  C   UNK d   0     -20.834  23.058  19.403  0.00  0.00     0.115 C 
BRANCH  66  67
ATOM     67  C   UNK d   0     -20.815  21.668  19.765  0.00  0.00     0.139 C 
ATOM     68  O   UNK d   0     -20.902  21.357  21.010  0.00  0.00    -0.650 OA
BRANCH  67  69
ATOM     69  O   UNK d   0     -20.710  20.567  18.917  0.00  0.00    -0.776 OA
ATOM     70  H   UNK d   0     -20.384  20.767  17.960  0.00  0.00     0.167 HD
ENDBRANCH  67  69
ENDBRANCH  66  67
ENDBRANCH  65  66
ENDBRANCH  14  65
ENDBRANCH   6   7
ENDBRANCH   5   6
ENDBRANCH   2   5
TORSDOF 28
ENDMDL
MODEL 4
REMARK VINA RESULT:      -7.8      2.414      8.132
REMARK  28 active torsions:
REMARK  status: ('A' for Active; 'I' for Inactive)
REMARK    1  A    between atoms: C_2  and  O_3 
REMARK    2  A    between atoms: C_2  and  C_4 
REMARK    3  A    between atoms: C_4  and  C_5 
REMARK    4  A    between atoms: C_5  and  C_6 
REMARK    5  A    between atoms: C_7  and  C_8 
REMARK    6  A    between atoms: C_8  and  C_9 
REMARK    7  A    between atoms: C_9  and  O_11 
REMARK    8  A    between atoms: C_28  and  C_29 
REMARK    9  A    between atoms: C_29  and  C_30 
REMARK   10  A    between atoms: C_30  and  O_32 
REMARK   11  A    between atoms: C_33  and  C_34 
REMARK   12  A    between atoms: C_34  and  C_35 
REMARK   13  A    between atoms: C_35  and  C_36 
REMARK   14  A    between atoms: C_36  and  O_38 
REMARK   15  A    between atoms: C_39  and  C_40 
REMARK   16  A    between atoms: C_40  and  C_41 
REMARK   17  A    between atoms: C_41  and  C_42 
REMARK   18  A    between atoms: C_42  and  O_44 
REMARK   19  A    between atoms: C_45  and  C_46 
REMARK   20  A    between atoms: C_46  and  C_47 
REMARK   21  A    between atoms: C_47  and  O_49 
REMARK   22  A    between atoms: C_50  and  C_51 
REMARK   23  A    between atoms: C_51  and  C_52 
REMARK   24  A    between atoms: C_52  and  O_54 
REMARK   25  A    between atoms: C_55  and  C_56 
REMARK   26  A    between atoms: C_56  and  C_57 
REMARK   27  A    between atoms: C_57  and  C_58 
REMARK   28  A    between atoms: C_58  and  O_60 
ROOT
ATOM      1  O   UNK d   0     -18.246  21.125  24.499  0.00  0.00    -0.650 OA
ATOM      2  C   UNK d   0     -18.107  21.101  23.256  0.00  0.00     0.139 C 
ENDROOT
BRANCH   2   3
ATOM      3  O   UNK d   0     -17.573  19.984  22.659  0.00  0.00    -0.776 OA
ATOM      4  H   UNK d   0     -18.071  19.091  22.669  0.00  0.00     0.167 HD
ENDBRANCH   2   3
BRANCH   2   5
ATOM      5  C   UNK d   0     -18.516  22.275  22.434  0.00  0.00     0.115 C 
BRANCH   5   6
ATOM      6  C   UNK d   0     -19.990  22.212  22.140  0.00  0.00     0.052 C 
BRANCH   6   7
ATOM      7  C   UNK d   0     -20.336  22.774  20.782  0.00  0.00    -0.020 A 
ATOM      8  C   UNK d   0     -20.190  22.194  19.617  0.00  0.00    -0.011 A 
ATOM      9  C   UNK d   0     -20.651  23.122  18.598  0.00  0.00     0.067 A 
ATOM     10  C   UNK d   0     -20.779  23.109  17.200  0.00  0.00     0.062 C 
ATOM     11  N   UNK d   0     -21.056  24.244  19.230  0.00  0.00    -0.248 NA
ATOM     12  C   UNK d   0     -21.510  24.000  16.407  0.00  0.00     0.041 A 
ATOM     13  N   UNK d   0     -21.630  25.340  16.461  0.00  0.00    -0.355 N 
ATOM     14  C   UNK d   0     -22.331  23.488  15.387  0.00  0.00    -0.022 A 
ATOM     15  C   UNK d   0     -22.513  25.690  15.507  0.00  0.00     0.042 A 
ATOM     16  H   UNK d   0     -21.087  26.027  17.147  0.00  0.00     0.166 HD
ATOM     17  C   UNK d   0     -22.998  26.959  15.132  0.00  0.00     0.062 C 
ATOM     18  C   UNK d   0     -22.975  24.555  14.812  0.00  0.00    -0.013 A 
ATOM     19  C   UNK d   0     -23.426  27.989  15.931  0.00  0.00     0.067 A 
ATOM     20  N   UNK d   0     -23.180  27.882  17.239  0.00  0.00    -0.248 NA
ATOM     21  C   UNK d   0     -24.133  29.243  15.730  0.00  0.00    -0.011 A 
ATOM     22  C   UNK d   0     -23.677  28.973  17.908  0.00  0.00     0.066 A 
ATOM     23  C   UNK d   0     -23.457  29.010  19.277  0.00  0.00     0.062 C 
ATOM     24  C   UNK d   0     -24.281  29.812  16.891  0.00  0.00    -0.020 A 
ATOM     25  C   UNK d   0     -22.709  28.110  20.053  0.00  0.00     0.041 A 
ATOM     26  N   UNK d   0     -22.601  26.777  20.009  0.00  0.00    -0.355 N 
ATOM     27  C   UNK d   0     -21.881  28.626  21.074  0.00  0.00    -0.022 A 
ATOM     28  C   UNK d   0     -21.728  26.425  20.966  0.00  0.00     0.042 A 
ATOM     29  H   UNK d   0     -23.156  26.088  19.326  0.00  0.00     0.166 HD
ATOM     30  C   UNK d   0     -21.243  25.166  21.355  0.00  0.00     0.062 C 
ATOM     31  C   UNK d   0     -21.256  27.567  21.656  0.00  0.00    -0.013 A 
ATOM     32  C   UNK d   0     -20.892  24.098  20.546  0.00  0.00     0.066 A 
BRANCH   8  33
ATOM     33  C   UNK d   0     -19.652  20.846  19.362  0.00  0.00     0.151 C 
BRANCH  33  34
ATOM     34  C   UNK d   0     -18.283  20.872  18.814  0.00  0.00     0.143 C 
ATOM     35  O   UNK d   0     -18.086  21.026  17.601  0.00  0.00    -0.650 OA
BRANCH  34  36
ATOM     36  O   UNK d   0     -17.213  20.723  19.665  0.00  0.00    -0.776 OA
ATOM     37  H   UNK d   0     -16.324  21.214  19.497  0.00  0.00     0.167 HD
ENDBRANCH  34  36
ENDBRANCH  33  34
ENDBRANCH   8  33
BRANCH  31  38
ATOM     38  C   UNK d   0     -20.261  27.633  22.791  0.00  0.00     0.151 C 
BRANCH  38  39
ATOM     39  C   UNK d   0     -18.894  27.447  22.350  0.00  0.00     0.143 C 
ATOM     40  O   UNK d   0     -18.429  28.034  21.358  0.00  0.00    -0.650 OA
BRANCH  39  41
ATOM     41  O   UNK d   0     -18.058  26.581  23.055  0.00  0.00    -0.776 OA
ATOM     42  H   UNK d   0     -17.878  25.666  22.631  0.00  0.00     0.167 HD
ENDBRANCH  39  41
ENDBRANCH  38  39
ENDBRANCH  31  38
BRANCH  27  43
ATOM     43  C   UNK d   0     -21.670  30.056  21.506  0.00  0.00     0.052 C 
BRANCH  43  44
ATOM     44  C   UNK d   0     -20.535  30.725  20.801  0.00  0.00     0.115 C 
BRANCH  44  45
ATOM     45  C   UNK d   0     -21.041  32.042  20.336  0.00  0.00     0.139 C 
ATOM     46  O   UNK d   0     -22.190  32.396  20.698  0.00  0.00    -0.650 OA
BRANCH  45  47
ATOM     47  O   UNK d   0     -20.302  32.886  19.535  0.00  0.00    -0.776 OA
ATOM     48  H   UNK d   0     -20.189  32.737  18.519  0.00  0.00     0.167 HD
ENDBRANCH  45  47
ENDBRANCH  44  45
ENDBRANCH  43  44
ENDBRANCH  27  43
BRANCH  24  49
ATOM     49  C   UNK d   0     -24.910  31.119  17.144  0.00  0.00     0.052 C 
BRANCH  49  50
ATOM     50  C   UNK d   0     -23.873  32.212  17.132  0.00  0.00     0.115 C 
BRANCH  50  51
ATOM     51  C   UNK d   0     -24.028  33.266  16.138  0.00  0.00     0.139 C 
ATOM     52  O   UNK d   0     -24.636  34.336  16.376  0.00  0.00    -0.650 OA
BRANCH  51  53
ATOM     53  O   UNK d   0     -23.493  33.098  14.870  0.00  0.00    -0.776 OA
ATOM     54  H   UNK d   0     -22.741  33.702  14.588  0.00  0.00     0.167 HD
ENDBRANCH  51  53
ENDBRANCH  50  51
ENDBRANCH  49  50
ENDBRANCH  24  49
BRANCH  21  55
ATOM     55  C   UNK d   0     -24.584  29.743  14.397  0.00  0.00     0.151 C 
BRANCH  55  56
ATOM     56  C   UNK d   0     -25.818  29.081  13.948  0.00  0.00     0.143 C 
ATOM     57  O   UNK d   0     -26.953  29.461  14.296  0.00  0.00    -0.650 OA
BRANCH  56  58
ATOM     58  O   UNK d   0     -25.694  27.983  13.098  0.00  0.00    -0.776 OA
ATOM     59  H   UNK d   0     -25.103  28.143  12.263  0.00  0.00     0.167 HD
ENDBRANCH  56  58
ENDBRANCH  55  56
ENDBRANCH  21  55
BRANCH  18  60
ATOM     60  C   UNK d   0     -23.963  24.460  13.677  0.00  0.00     0.151 C 
BRANCH  60  61
ATOM     61  C   UNK d   0     -25.293  24.409  14.303  0.00  0.00     0.143 C 
ATOM     62  O   UNK d   0     -25.988  25.365  14.648  0.00  0.00    -0.650 OA
BRANCH  61  63
ATOM     63  O   UNK d   0     -25.807  23.108  14.520  0.00  0.00    -0.776 OA
ATOM     64  H   UNK d   0     -26.793  22.923  14.461  0.00  0.00     0.167 HD
ENDBRANCH  61  63
ENDBRANCH  60  61
ENDBRANCH  18  60
BRANCH  14  65
ATOM     65  C   UNK d   0     -22.478  22.090  14.855  0.00  0.00     0.052 C 
BRANCH  65  66
ATOM     66  C   UNK d   0     -23.245  21.199  15.766  0.00  0.00     0.115 C 
BRANCH  66  67
ATOM     67  C   UNK d   0     -23.830  19.992  15.255  0.00  0.00     0.139 C 
ATOM     68  O   UNK d   0     -24.894  20.081  14.538  0.00  0.00    -0.650 OA
BRANCH  67  69
ATOM     69  O   UNK d   0     -23.384  18.683  15.437  0.00  0.00    -0.776 OA
ATOM     70  H   UNK d   0     -22.455  18.469  15.048  0.00  0.00     0.167 HD
ENDBRANCH  67  69
ENDBRANCH  66  67
ENDBRANCH  65  66
ENDBRANCH  14  65
ENDBRANCH   6   7
ENDBRANCH   5   6
ENDBRANCH   2   5
TORSDOF 28
ENDMDL
MODEL 5
REMARK VINA RESULT:      -7.6     22.004     25.333
REMARK  28 active torsions:
REMARK  status: ('A' for Active; 'I' for Inactive)
REMARK    1  A    between atoms: C_2  and  O_3 
REMARK    2  A    between atoms: C_2  and  C_4 
REMARK    3  A    between atoms: C_4  and  C_5 
REMARK    4  A    between atoms: C_5  and  C_6 
REMARK    5  A    between atoms: C_7  and  C_8 
REMARK    6  A    between atoms: C_8  and  C_9 
REMARK    7  A    between atoms: C_9  and  O_11 
REMARK    8  A    between atoms: C_28  and  C_29 
REMARK    9  A    between atoms: C_29  and  C_30 
REMARK   10  A    between atoms: C_30  and  O_32 
REMARK   11  A    between atoms: C_33  and  C_34 
REMARK   12  A    between atoms: C_34  and  C_35 
REMARK   13  A    between atoms: C_35  and  C_36 
REMARK   14  A    between atoms: C_36  and  O_38 
REMARK   15  A    between atoms: C_39  and  C_40 
REMARK   16  A    between atoms: C_40  and  C_41 
REMARK   17  A    between atoms: C_41  and  C_42 
REMARK   18  A    between atoms: C_42  and  O_44 
REMARK   19  A    between atoms: C_45  and  C_46 
REMARK   20  A    between atoms: C_46  and  C_47 
REMARK   21  A    between atoms: C_47  and  O_49 
REMARK   22  A    between atoms: C_50  and  C_51 
REMARK   23  A    between atoms: C_51  and  C_52 
REMARK   24  A    between atoms: C_52  and  O_54 
REMARK   25  A    between atoms: C_55  and  C_56 
REMARK   26  A    between atoms: C_56  and  C_57 
REMARK   27  A    between atoms: C_57  and  C_58 
REMARK   28  A    between atoms: C_58  and  O_60 
ROOT
ATOM      1  O   UNK d   0     -29.916   4.764  10.257  0.00  0.00    -0.650 OA
ATOM      2  C   UNK d   0     -30.132   4.777   9.025  0.00  0.00     0.139 C 
ENDROOT
BRANCH   2   3
ATOM      3  O   UNK d   0     -29.241   4.161   8.179  0.00  0.00    -0.776 OA
ATOM      4  H   UNK d   0     -28.236   4.177   8.369  0.00  0.00     0.167 HD
ENDBRANCH   2   3
BRANCH   2   5
ATOM      5  C   UNK d   0     -31.344   5.455   8.484  0.00  0.00     0.115 C 
BRANCH   5   6
ATOM      6  C   UNK d   0     -31.549   5.075   7.043  0.00  0.00     0.052 C 
BRANCH   6   7
ATOM      7  C   UNK d   0     -32.228   6.164   6.246  0.00  0.00    -0.020 A 
ATOM      8  C   UNK d   0     -33.498   6.259   5.945  0.00  0.00    -0.011 A 
ATOM      9  C   UNK d   0     -33.679   7.468   5.159  0.00  0.00     0.067 A 
ATOM     10  C   UNK d   0     -34.760   8.136   4.562  0.00  0.00     0.062 C 
ATOM     11  N   UNK d   0     -32.466   8.044   5.025  0.00  0.00    -0.248 NA
ATOM     12  C   UNK d   0     -34.782   9.447   4.076  0.00  0.00     0.041 A 
ATOM     13  N   UNK d   0     -33.883  10.138   3.349  0.00  0.00    -0.355 N 
ATOM     14  C   UNK d   0     -35.871  10.276   4.401  0.00  0.00    -0.022 A 
ATOM     15  C   UNK d   0     -34.370  11.386   3.211  0.00  0.00     0.042 A 
ATOM     16  H   UNK d   0     -32.932   9.746   2.925  0.00  0.00     0.166 HD
ATOM     17  C   UNK d   0     -33.836  12.507   2.545  0.00  0.00     0.062 C 
ATOM     18  C   UNK d   0     -35.615  11.510   3.858  0.00  0.00    -0.013 A 
ATOM     19  C   UNK d   0     -32.553  12.991   2.563  0.00  0.00     0.067 A 
ATOM     20  N   UNK d   0     -31.621  12.211   3.117  0.00  0.00    -0.248 NA
ATOM     21  C   UNK d   0     -31.889  14.208   2.128  0.00  0.00    -0.011 A 
ATOM     22  C   UNK d   0     -30.396  12.831   3.077  0.00  0.00     0.066 A 
ATOM     23  C   UNK d   0     -29.324  12.113   3.588  0.00  0.00     0.062 C 
ATOM     24  C   UNK d   0     -30.628  14.110   2.435  0.00  0.00    -0.020 A 
ATOM     25  C   UNK d   0     -29.321  10.791   4.060  0.00  0.00     0.041 A 
ATOM     26  N   UNK d   0     -30.208  10.109   4.795  0.00  0.00    -0.355 N 
ATOM     27  C   UNK d   0     -28.229   9.959   3.730  0.00  0.00    -0.022 A 
ATOM     28  C   UNK d   0     -29.720   8.867   4.941  0.00  0.00     0.042 A 
ATOM     29  H   UNK d   0     -31.158  10.508   5.229  0.00  0.00     0.166 HD
ATOM     30  C   UNK d   0     -30.236   7.746   5.609  0.00  0.00     0.062 C 
ATOM     31  C   UNK d   0     -28.474   8.740   4.282  0.00  0.00    -0.013 A 
ATOM     32  C   UNK d   0     -31.550   7.309   5.657  0.00  0.00     0.066 A 
BRANCH   8  33
ATOM     33  C   UNK d   0     -34.569   5.318   6.320  0.00  0.00     0.151 C 
BRANCH  33  34
ATOM     34  C   UNK d   0     -34.736   4.226   5.345  0.00  0.00     0.143 C 
ATOM     35  O   UNK d   0     -35.443   4.374   4.338  0.00  0.00    -0.650 OA
BRANCH  34  36
ATOM     36  O   UNK d   0     -34.099   3.026   5.559  0.00  0.00    -0.776 OA
ATOM     37  H   UNK d   0     -33.093   2.986   5.772  0.00  0.00     0.167 HD
ENDBRANCH  34  36
ENDBRANCH  33  34
ENDBRANCH   8  33
BRANCH  31  38
ATOM     38  C   UNK d   0     -27.586   7.522   4.182  0.00  0.00     0.151 C 
BRANCH  38  39
ATOM     39  C   UNK d   0     -26.301   7.708   4.822  0.00  0.00     0.143 C 
ATOM     40  O   UNK d   0     -26.193   7.956   6.036  0.00  0.00    -0.650 OA
BRANCH  39  41
ATOM     41  O   UNK d   0     -25.135   7.609   4.063  0.00  0.00    -0.776 OA
ATOM     42  H   UNK d   0     -25.202   7.095   3.180  0.00  0.00     0.167 HD
ENDBRANCH  39  41
ENDBRANCH  38  39
ENDBRANCH  31  38
BRANCH  27  43
ATOM     43  C   UNK d   0     -26.991  10.276   2.928  0.00  0.00     0.052 C 
BRANCH  43  44
ATOM     44  C   UNK d   0     -27.210  10.209   1.452  0.00  0.00     0.115 C 
BRANCH  44  45
ATOM     45  C   UNK d   0     -26.794   8.849   1.022  0.00  0.00     0.139 C 
ATOM     46  O   UNK d   0     -27.586   8.185   0.308  0.00  0.00    -0.650 OA
BRANCH  45  47
ATOM     47  O   UNK d   0     -25.580   8.295   1.367  0.00  0.00    -0.776 OA
ATOM     48  H   UNK d   0     -25.251   7.389   0.995  0.00  0.00     0.167 HD
ENDBRANCH  45  47
ENDBRANCH  44  45
ENDBRANCH  43  44
ENDBRANCH  27  43
BRANCH  24  49
ATOM     49  C   UNK d   0     -29.582  15.105   2.140  0.00  0.00     0.052 C 
BRANCH  49  50
ATOM     50  C   UNK d   0     -29.402  15.250   0.651  0.00  0.00     0.115 C 
BRANCH  50  51
ATOM     51  C   UNK d   0     -29.610  16.575   0.082  0.00  0.00     0.139 C 
ATOM     52  O   UNK d   0     -29.498  16.809  -1.145  0.00  0.00    -0.650 OA
BRANCH  51  53
ATOM     53  O   UNK d   0     -29.942  17.634   0.912  0.00  0.00    -0.776 OA
ATOM     54  H   UNK d   0     -30.872  17.666   1.292  0.00  0.00     0.167 HD
ENDBRANCH  51  53
ENDBRANCH  50  51
ENDBRANCH  49  50
ENDBRANCH  24  49
BRANCH  21  55
ATOM     55  C   UNK d   0     -32.584  15.340   1.446  0.00  0.00     0.151 C 
BRANCH  55  56
ATOM     56  C   UNK d   0     -33.402  16.128   2.381  0.00  0.00     0.143 C 
ATOM     57  O   UNK d   0     -32.909  16.802   3.306  0.00  0.00    -0.650 OA
BRANCH  56  58
ATOM     58  O   UNK d   0     -34.785  16.108   2.209  0.00  0.00    -0.776 OA
ATOM     59  H   UNK d   0     -35.147  16.781   1.509  0.00  0.00     0.167 HD
ENDBRANCH  56  58
ENDBRANCH  55  56
ENDBRANCH  21  55
BRANCH  18  60
ATOM     60  C   UNK d   0     -36.523  12.710   3.972  0.00  0.00     0.151 C 
BRANCH  60  61
ATOM     61  C   UNK d   0     -36.970  13.009   2.603  0.00  0.00     0.143 C 
ATOM     62  O   UNK d   0     -37.107  14.122   2.093  0.00  0.00    -0.650 OA
BRANCH  61  63
ATOM     63  O   UNK d   0     -37.269  11.878   1.806  0.00  0.00    -0.776 OA
ATOM     64  H   UNK d   0     -37.109  10.947   2.147  0.00  0.00     0.167 HD
ENDBRANCH  61  63
ENDBRANCH  60  61
ENDBRANCH  18  60
BRANCH  14  65
ATOM     65  C   UNK d   0     -37.167   9.965   5.094  0.00  0.00     0.052 C 
BRANCH  65  66
ATOM     66  C   UNK d   0     -37.706  11.119   5.863  0.00  0.00     0.115 C 
BRANCH  66  67
ATOM     67  C   UNK d   0     -39.115  11.395   5.838  0.00  0.00     0.139 C 
ATOM     68  O   UNK d   0     -39.502  12.586   5.547  0.00  0.00    -0.650 OA
BRANCH  67  69
ATOM     69  O   UNK d   0     -40.162  10.511   6.098  0.00  0.00    -0.776 OA
ATOM     70  H   UNK d   0     -40.056   9.563   5.709  0.00  0.00     0.167 HD
ENDBRANCH  67  69
ENDBRANCH  66  67
ENDBRANCH  65  66
ENDBRANCH  14  65
ENDBRANCH   6   7
ENDBRANCH   5   6
ENDBRANCH   2   5
TORSDOF 28
ENDMDL
MODEL 6
REMARK VINA RESULT:      -7.5     21.863     25.610
REMARK  28 active torsions:
REMARK  status: ('A' for Active; 'I' for Inactive)
REMARK    1  A    between atoms: C_2  and  O_3 
REMARK    2  A    between atoms: C_2  and  C_4 
REMARK    3  A    between atoms: C_4  and  C_5 
REMARK    4  A    between atoms: C_5  and  C_6 
REMARK    5  A    between atoms: C_7  and  C_8 
REMARK    6  A    between atoms: C_8  and  C_9 
REMARK    7  A    between atoms: C_9  and  O_11 
REMARK    8  A    between atoms: C_28  and  C_29 
REMARK    9  A    between atoms: C_29  and  C_30 
REMARK   10  A    between atoms: C_30  and  O_32 
REMARK   11  A    between atoms: C_33  and  C_34 
REMARK   12  A    between atoms: C_34  and  C_35 
REMARK   13  A    between atoms: C_35  and  C_36 
REMARK   14  A    between atoms: C_36  and  O_38 
REMARK   15  A    between atoms: C_39  and  C_40 
REMARK   16  A    between atoms: C_40  and  C_41 
REMARK   17  A    between atoms: C_41  and  C_42 
REMARK   18  A    between atoms: C_42  and  O_44 
REMARK   19  A    between atoms: C_45  and  C_46 
REMARK   20  A    between atoms: C_46  and  C_47 
REMARK   21  A    between atoms: C_47  and  O_49 
REMARK   22  A    between atoms: C_50  and  C_51 
REMARK   23  A    between atoms: C_51  and  C_52 
REMARK   24  A    between atoms: C_52  and  O_54 
REMARK   25  A    between atoms: C_55  and  C_56 
REMARK   26  A    between atoms: C_56  and  C_57 
REMARK   27  A    between atoms: C_57  and  C_58 
REMARK   28  A    between atoms: C_58  and  O_60 
ROOT
ATOM      1  O   UNK d   0     -33.338   3.620   8.005  0.00  0.00    -0.650 OA
ATOM      2  C   UNK d   0     -33.552   4.751   7.516  0.00  0.00     0.139 C 
ENDROOT
BRANCH   2   3
ATOM      3  O   UNK d   0     -33.198   5.871   8.228  0.00  0.00    -0.776 OA
ATOM      4  H   UNK d   0     -33.733   6.739   8.146  0.00  0.00     0.167 HD
ENDBRANCH   2   3
BRANCH   2   5
ATOM      5  C   UNK d   0     -34.186   4.877   6.172  0.00  0.00     0.115 C 
BRANCH   5   6
ATOM      6  C   UNK d   0     -33.147   4.732   5.094  0.00  0.00     0.052 C 
BRANCH   6   7
ATOM      7  C   UNK d   0     -32.298   5.970   4.934  0.00  0.00    -0.020 A 
ATOM      8  C   UNK d   0     -31.008   6.083   5.119  0.00  0.00    -0.011 A 
ATOM      9  C   UNK d   0     -30.639   7.464   4.855  0.00  0.00     0.067 A 
ATOM     10  C   UNK d   0     -29.452   8.213   4.852  0.00  0.00     0.062 C 
ATOM     11  N   UNK d   0     -31.769   8.123   4.522  0.00  0.00    -0.248 NA
ATOM     12  C   UNK d   0     -29.251   9.481   4.297  0.00  0.00     0.041 A 
ATOM     13  N   UNK d   0     -30.015  10.590   4.321  0.00  0.00    -0.355 N 
ATOM     14  C   UNK d   0     -28.103   9.709   3.518  0.00  0.00    -0.022 A 
ATOM     15  C   UNK d   0     -29.385  11.513   3.570  0.00  0.00     0.042 A 
ATOM     16  H   UNK d   0     -30.972  10.724   4.873  0.00  0.00     0.166 HD
ATOM     17  C   UNK d   0     -29.744  12.840   3.262  0.00  0.00     0.062 C 
ATOM     18  C   UNK d   0     -28.182  10.997   3.050  0.00  0.00    -0.013 A 
ATOM     19  C   UNK d   0     -30.964  13.338   2.881  0.00  0.00     0.067 A 
ATOM     20  N   UNK d   0     -32.013  12.519   2.996  0.00  0.00    -0.248 NA
ATOM     21  C   UNK d   0     -31.457  14.592   2.336  0.00  0.00    -0.011 A 
ATOM     22  C   UNK d   0     -33.156  13.147   2.564  0.00  0.00     0.066 A 
ATOM     23  C   UNK d   0     -34.333  12.420   2.664  0.00  0.00     0.062 C 
ATOM     24  C   UNK d   0     -32.739  14.472   2.149  0.00  0.00    -0.020 A 
ATOM     25  C   UNK d   0     -34.515  11.152   3.237  0.00  0.00     0.041 A 
ATOM     26  N   UNK d   0     -33.763  10.045   3.201  0.00  0.00    -0.355 N 
ATOM     27  C   UNK d   0     -35.666  10.925   4.022  0.00  0.00    -0.022 A 
ATOM     28  C   UNK d   0     -34.395   9.120   3.942  0.00  0.00     0.042 A 
ATOM     29  H   UNK d   0     -32.808   9.909   2.637  0.00  0.00     0.166 HD
ATOM     30  C   UNK d   0     -34.054   7.793   4.248  0.00  0.00     0.062 C 
ATOM     31  C   UNK d   0     -35.598   9.642   4.473  0.00  0.00    -0.013 A 
ATOM     32  C   UNK d   0     -32.802   7.280   4.550  0.00  0.00     0.066 A 
BRANCH   8  33
ATOM     33  C   UNK d   0     -30.075   5.016   5.526  0.00  0.00     0.151 C 
BRANCH  33  34
ATOM     34  C   UNK d   0     -29.596   5.175   6.911  0.00  0.00     0.143 C 
ATOM     35  O   UNK d   0     -30.307   4.847   7.872  0.00  0.00    -0.650 OA
BRANCH  34  36
ATOM     36  O   UNK d   0     -28.343   5.696   7.137  0.00  0.00    -0.776 OA
ATOM     37  H   UNK d   0     -27.658   5.789   6.375  0.00  0.00     0.167 HD
ENDBRANCH  34  36
ENDBRANCH  33  34
ENDBRANCH   8  33
BRANCH  31  38
ATOM     38  C   UNK d   0     -36.606   8.956   5.365  0.00  0.00     0.151 C 
BRANCH  38  39
ATOM     39  C   UNK d   0     -37.163   9.839   6.366  0.00  0.00     0.143 C 
ATOM     40  O   UNK d   0     -38.359  10.180   6.362  0.00  0.00    -0.650 OA
BRANCH  39  41
ATOM     41  O   UNK d   0     -36.341  10.334   7.379  0.00  0.00    -0.776 OA
ATOM     42  H   UNK d   0     -36.670  11.169   7.874  0.00  0.00     0.167 HD
ENDBRANCH  39  41
ENDBRANCH  38  39
ENDBRANCH  31  38
BRANCH  27  43
ATOM     43  C   UNK d   0     -36.803  11.861   4.350  0.00  0.00     0.052 C 
BRANCH  43  44
ATOM     44  C   UNK d   0     -37.512  12.376   3.140  0.00  0.00     0.115 C 
BRANCH  44  45
ATOM     45  C   UNK d   0     -38.619  13.237   3.631  0.00  0.00     0.139 C 
ATOM     46  O   UNK d   0     -39.130  12.966   4.746  0.00  0.00    -0.650 OA
BRANCH  45  47
ATOM     47  O   UNK d   0     -39.099  14.315   2.919  0.00  0.00    -0.776 OA
ATOM     48  H   UNK d   0     -38.791  14.534   1.958  0.00  0.00     0.167 HD
ENDBRANCH  45  47
ENDBRANCH  44  45
ENDBRANCH  43  44
ENDBRANCH  27  43
BRANCH  24  49
ATOM     49  C   UNK d   0     -33.645  15.519   1.647  0.00  0.00     0.052 C 
BRANCH  49  50
ATOM     50  C   UNK d   0     -34.437  15.008   0.471  0.00  0.00     0.115 C 
BRANCH  50  51
ATOM     51  C   UNK d   0     -35.888  14.992   0.603  0.00  0.00     0.139 C 
ATOM     52  O   UNK d   0     -36.477  15.374   1.641  0.00  0.00    -0.650 OA
BRANCH  51  53
ATOM     53  O   UNK d   0     -36.667  14.539  -0.450  0.00  0.00    -0.776 OA
ATOM     54  H   UNK d   0     -37.306  13.782  -0.278  0.00  0.00     0.167 HD
ENDBRANCH  51  53
ENDBRANCH  50  51
ENDBRANCH  49  50
ENDBRANCH  24  49
BRANCH  21  55
ATOM     55  C   UNK d   0     -30.595  15.780   2.064  0.00  0.00     0.151 C 
BRANCH  55  56
ATOM     56  C   UNK d   0     -29.750  15.588   0.875  0.00  0.00     0.143 C 
ATOM     57  O   UNK d   0     -28.780  14.805   0.856  0.00  0.00    -0.650 OA
BRANCH  56  58
ATOM     58  O   UNK d   0     -30.064  16.320  -0.269  0.00  0.00    -0.776 OA
ATOM     59  H   UNK d   0     -31.068  16.323  -0.523  0.00  0.00     0.167 HD
ENDBRANCH  56  58
ENDBRANCH  55  56
ENDBRANCH  21  55
BRANCH  18  60
ATOM     60  C   UNK d   0     -27.157  11.659   2.162  0.00  0.00     0.151 C 
BRANCH  60  61
ATOM     61  C   UNK d   0     -26.443  12.620   3.016  0.00  0.00     0.143 C 
ATOM     62  O   UNK d   0     -25.948  12.405   4.122  0.00  0.00    -0.650 OA
BRANCH  61  63
ATOM     63  O   UNK d   0     -26.326  13.927   2.484  0.00  0.00    -0.776 OA
ATOM     64  H   UNK d   0     -26.754  14.171   1.608  0.00  0.00     0.167 HD
ENDBRANCH  61  63
ENDBRANCH  60  61
ENDBRANCH  18  60
BRANCH  14  65
ATOM     65  C   UNK d   0     -26.900   8.844   3.266  0.00  0.00     0.052 C 
BRANCH  65  66
ATOM     66  C   UNK d   0     -26.933   8.176   1.937  0.00  0.00     0.115 C 
BRANCH  66  67
ATOM     67  C   UNK d   0     -26.473   6.821   1.811  0.00  0.00     0.139 C 
ATOM     68  O   UNK d   0     -26.191   6.166   2.880  0.00  0.00    -0.650 OA
BRANCH  67  69
ATOM     69  O   UNK d   0     -26.283   6.091   0.638  0.00  0.00    -0.776 OA
ATOM     70  H   UNK d   0     -27.046   6.146  -0.053  0.00  0.00     0.167 HD
ENDBRANCH  67  69
ENDBRANCH  66  67
ENDBRANCH  65  66
ENDBRANCH  14  65
ENDBRANCH   6   7
ENDBRANCH   5   6
ENDBRANCH   2   5
TORSDOF 28
ENDMDL
MODEL 7
REMARK VINA RESULT:      -7.3      2.199      7.879
REMARK  28 active torsions:
REMARK  status: ('A' for Active; 'I' for Inactive)
REMARK    1  A    between atoms: C_2  and  O_3 
REMARK    2  A    between atoms: C_2  and  C_4 
REMARK    3  A    between atoms: C_4  and  C_5 
REMARK    4  A    between atoms: C_5  and  C_6 
REMARK    5  A    between atoms: C_7  and  C_8 
REMARK    6  A    between atoms: C_8  and  C_9 
REMARK    7  A    between atoms: C_9  and  O_11 
REMARK    8  A    between atoms: C_28  and  C_29 
REMARK    9  A    between atoms: C_29  and  C_30 
REMARK   10  A    between atoms: C_30  and  O_32 
REMARK   11  A    between atoms: C_33  and  C_34 
REMARK   12  A    between atoms: C_34  and  C_35 
REMARK   13  A    between atoms: C_35  and  C_36 
REMARK   14  A    between atoms: C_36  and  O_38 
REMARK   15  A    between atoms: C_39  and  C_40 
REMARK   16  A    between atoms: C_40  and  C_41 
REMARK   17  A    between atoms: C_41  and  C_42 
REMARK   18  A    between atoms: C_42  and  O_44 
REMARK   19  A    between atoms: C_45  and  C_46 
REMARK   20  A    between atoms: C_46  and  C_47 
REMARK   21  A    between atoms: C_47  and  O_49 
REMARK   22  A    between atoms: C_50  and  C_51 
REMARK   23  A    between atoms: C_51  and  C_52 
REMARK   24  A    between atoms: C_52  and  O_54 
REMARK   25  A    between atoms: C_55  and  C_56 
REMARK   26  A    between atoms: C_56  and  C_57 
REMARK   27  A    between atoms: C_57  and  C_58 
REMARK   28  A    between atoms: C_58  and  O_60 
ROOT
ATOM      1  O   UNK d   0     -19.974  24.110  24.657  0.00  0.00    -0.650 OA
ATOM      2  C   UNK d   0     -18.923  24.460  24.073  0.00  0.00     0.139 C 
ENDROOT
BRANCH   2   3
ATOM      3  O   UNK d   0     -18.258  25.583  24.500  0.00  0.00    -0.776 OA
ATOM      4  H   UNK d   0     -18.767  26.394  24.857  0.00  0.00     0.167 HD
ENDBRANCH   2   3
BRANCH   2   5
ATOM      5  C   UNK d   0     -18.403  23.662  22.927  0.00  0.00     0.115 C 
BRANCH   5   6
ATOM      6  C   UNK d   0     -19.506  22.826  22.335  0.00  0.00     0.052 C 
BRANCH   6   7
ATOM      7  C   UNK d   0     -19.901  23.280  20.950  0.00  0.00    -0.020 A 
ATOM      8  C   UNK d   0     -19.746  22.633  19.824  0.00  0.00    -0.011 A 
ATOM      9  C   UNK d   0     -20.267  23.469  18.755  0.00  0.00     0.067 A 
ATOM     10  C   UNK d   0     -20.416  23.358  17.364  0.00  0.00     0.062 C 
ATOM     11  N   UNK d   0     -20.715  24.609  19.321  0.00  0.00    -0.248 NA
ATOM     12  C   UNK d   0     -21.202  24.160  16.529  0.00  0.00     0.041 A 
ATOM     13  N   UNK d   0     -21.385  25.494  16.498  0.00  0.00    -0.355 N 
ATOM     14  C   UNK d   0     -22.014  23.543  15.560  0.00  0.00    -0.022 A 
ATOM     15  C   UNK d   0     -22.299  25.738  15.540  0.00  0.00     0.042 A 
ATOM     16  H   UNK d   0     -20.865  26.249  17.127  0.00  0.00     0.166 HD
ATOM     17  C   UNK d   0     -22.851  26.955  15.093  0.00  0.00     0.062 C 
ATOM     18  C   UNK d   0     -22.717  24.539  14.930  0.00  0.00    -0.013 A 
ATOM     19  C   UNK d   0     -23.315  28.014  15.832  0.00  0.00     0.067 A 
ATOM     20  N   UNK d   0     -23.044  28.005  17.139  0.00  0.00    -0.248 NA
ATOM     21  C   UNK d   0     -24.085  29.217  15.563  0.00  0.00    -0.011 A 
ATOM     22  C   UNK d   0     -23.582  29.113  17.745  0.00  0.00     0.066 A 
ATOM     23  C   UNK d   0     -23.342  29.250  19.105  0.00  0.00     0.062 C 
ATOM     24  C   UNK d   0     -24.242  29.854  16.688  0.00  0.00    -0.020 A 
ATOM     25  C   UNK d   0     -22.539  28.440  19.922  0.00  0.00     0.041 A 
ATOM     26  N   UNK d   0     -22.368  27.113  19.963  0.00  0.00    -0.355 N 
ATOM     27  C   UNK d   0     -21.721  29.060  20.891  0.00  0.00    -0.022 A 
ATOM     28  C   UNK d   0     -21.463  26.866  20.924  0.00  0.00     0.042 A 
ATOM     29  H   UNK d   0     -22.899  26.355  19.338  0.00  0.00     0.166 HD
ATOM     30  C   UNK d   0     -20.912  25.660  21.385  0.00  0.00     0.062 C 
ATOM     31  C   UNK d   0     -21.036  28.072  21.529  0.00  0.00    -0.013 A 
ATOM     32  C   UNK d   0     -20.523  24.558  20.640  0.00  0.00     0.066 A 
BRANCH   8  33
ATOM     33  C   UNK d   0     -19.147  21.297  19.646  0.00  0.00     0.151 C 
BRANCH  33  34
ATOM     34  C   UNK d   0     -20.137  20.210  19.744  0.00  0.00     0.143 C 
ATOM     35  O   UNK d   0     -21.240  20.400  20.275  0.00  0.00    -0.650 OA
BRANCH  34  36
ATOM     36  O   UNK d   0     -19.829  18.968  19.238  0.00  0.00    -0.776 OA
ATOM     37  H   UNK d   0     -20.469  18.478  18.598  0.00  0.00     0.167 HD
ENDBRANCH  34  36
ENDBRANCH  33  34
ENDBRANCH   8  33
BRANCH  31  38
ATOM     38  C   UNK d   0     -20.027  28.259  22.638  0.00  0.00     0.151 C 
BRANCH  38  39
ATOM     39  C   UNK d   0     -18.665  28.333  22.151  0.00  0.00     0.143 C 
ATOM     40  O   UNK d   0     -18.203  29.358  21.620  0.00  0.00    -0.650 OA
BRANCH  39  41
ATOM     41  O   UNK d   0     -17.831  27.222  22.277  0.00  0.00    -0.776 OA
ATOM     42  H   UNK d   0     -17.895  26.512  21.541  0.00  0.00     0.167 HD
ENDBRANCH  39  41
ENDBRANCH  38  39
ENDBRANCH  31  38
BRANCH  27  43
ATOM     43  C   UNK d   0     -21.572  30.523  21.226  0.00  0.00     0.052 C 
BRANCH  43  44
ATOM     44  C   UNK d   0     -20.770  31.281  20.218  0.00  0.00     0.115 C 
BRANCH  44  45
ATOM     45  C   UNK d   0     -21.449  32.589  20.031  0.00  0.00     0.139 C 
ATOM     46  O   UNK d   0     -21.068  33.325  19.088  0.00  0.00    -0.650 OA
BRANCH  45  47
ATOM     47  O   UNK d   0     -22.477  33.020  20.842  0.00  0.00    -0.776 OA
ATOM     48  H   UNK d   0     -22.362  33.174  21.857  0.00  0.00     0.167 HD
ENDBRANCH  45  47
ENDBRANCH  44  45
ENDBRANCH  43  44
ENDBRANCH  27  43
BRANCH  24  49
ATOM     49  C   UNK d   0     -24.929  31.144  16.867  0.00  0.00     0.052 C 
BRANCH  49  50
ATOM     50  C   UNK d   0     -23.987  32.164  17.453  0.00  0.00     0.115 C 
BRANCH  50  51
ATOM     51  C   UNK d   0     -24.086  33.527  16.949  0.00  0.00     0.139 C 
ATOM     52  O   UNK d   0     -24.864  33.850  16.022  0.00  0.00    -0.650 OA
BRANCH  51  53
ATOM     53  O   UNK d   0     -23.294  34.522  17.502  0.00  0.00    -0.776 OA
ATOM     54  H   UNK d   0     -23.732  35.388  17.763  0.00  0.00     0.167 HD
ENDBRANCH  51  53
ENDBRANCH  50  51
ENDBRANCH  49  50
ENDBRANCH  24  49
BRANCH  21  55
ATOM     55  C   UNK d   0     -24.581  29.607  14.210  0.00  0.00     0.151 C 
BRANCH  55  56
ATOM     56  C   UNK d   0     -25.824  28.905  13.855  0.00  0.00     0.143 C 
ATOM     57  O   UNK d   0     -26.948  29.291  14.231  0.00  0.00    -0.650 OA
BRANCH  56  58
ATOM     58  O   UNK d   0     -25.721  27.763  13.063  0.00  0.00    -0.776 OA
ATOM     59  H   UNK d   0     -24.794  27.618  12.625  0.00  0.00     0.167 HD
ENDBRANCH  56  58
ENDBRANCH  55  56
ENDBRANCH  21  55
BRANCH  18  60
ATOM     60  C   UNK d   0     -23.718  24.323  13.822  0.00  0.00     0.151 C 
BRANCH  60  61
ATOM     61  C   UNK d   0     -25.043  24.382  14.458  0.00  0.00     0.143 C 
ATOM     62  O   UNK d   0     -25.606  25.379  14.911  0.00  0.00    -0.650 OA
BRANCH  61  63
ATOM     63  O   UNK d   0     -25.724  23.144  14.546  0.00  0.00    -0.776 OA
ATOM     64  H   UNK d   0     -25.784  22.645  15.416  0.00  0.00     0.167 HD
ENDBRANCH  61  63
ENDBRANCH  60  61
ENDBRANCH  18  60
BRANCH  14  65
ATOM     65  C   UNK d   0     -22.102  22.108  15.123  0.00  0.00     0.052 C 
BRANCH  65  66
ATOM     66  C   UNK d   0     -23.264  21.391  15.713  0.00  0.00     0.115 C 
BRANCH  66  67
ATOM     67  C   UNK d   0     -23.665  21.674  17.063  0.00  0.00     0.139 C 
ATOM     68  O   UNK d   0     -24.725  22.376  17.254  0.00  0.00    -0.650 OA
BRANCH  67  69
ATOM     69  O   UNK d   0     -23.035  21.275  18.241  0.00  0.00    -0.776 OA
ATOM     70  H   UNK d   0     -22.102  21.678  18.409  0.00  0.00     0.167 HD
ENDBRANCH  67  69
ENDBRANCH  66  67
ENDBRANCH  65  66
ENDBRANCH  14  65
ENDBRANCH   6   7
ENDBRANCH   5   6
ENDBRANCH   2   5
TORSDOF 28
ENDMDL
MODEL 8
REMARK VINA RESULT:      -7.1      1.520      8.141
REMARK  28 active torsions:
REMARK  status: ('A' for Active; 'I' for Inactive)
REMARK    1  A    between atoms: C_2  and  O_3 
REMARK    2  A    between atoms: C_2  and  C_4 
REMARK    3  A    between atoms: C_4  and  C_5 
REMARK    4  A    between atoms: C_5  and  C_6 
REMARK    5  A    between atoms: C_7  and  C_8 
REMARK    6  A    between atoms: C_8  and  C_9 
REMARK    7  A    between atoms: C_9  and  O_11 
REMARK    8  A    between atoms: C_28  and  C_29 
REMARK    9  A    between atoms: C_29  and  C_30 
REMARK   10  A    between atoms: C_30  and  O_32 
REMARK   11  A    between atoms: C_33  and  C_34 
REMARK   12  A    between atoms: C_34  and  C_35 
REMARK   13  A    between atoms: C_35  and  C_36 
REMARK   14  A    between atoms: C_36  and  O_38 
REMARK   15  A    between atoms: C_39  and  C_40 
REMARK   16  A    between atoms: C_40  and  C_41 
REMARK   17  A    between atoms: C_41  and  C_42 
REMARK   18  A    between atoms: C_42  and  O_44 
REMARK   19  A    between atoms: C_45  and  C_46 
REMARK   20  A    between atoms: C_46  and  C_47 
REMARK   21  A    between atoms: C_47  and  O_49 
REMARK   22  A    between atoms: C_50  and  C_51 
REMARK   23  A    between atoms: C_51  and  C_52 
REMARK   24  A    between atoms: C_52  and  O_54 
REMARK   25  A    between atoms: C_55  and  C_56 
REMARK   26  A    between atoms: C_56  and  C_57 
REMARK   27  A    between atoms: C_57  and  C_58 
REMARK   28  A    between atoms: C_58  and  O_60 
ROOT
ATOM      1  O   UNK d   0     -19.198  21.793  20.098  0.00  0.00    -0.650 OA
ATOM      2  C   UNK d   0     -19.185  21.474  18.888  0.00  0.00     0.139 C 
ENDROOT
BRANCH   2   3
ATOM      3  O   UNK d   0     -18.677  20.252  18.519  0.00  0.00    -0.776 OA
ATOM      4  H   UNK d   0     -19.079  19.727  17.739  0.00  0.00     0.167 HD
ENDBRANCH   2   3
BRANCH   2   5
ATOM      5  C   UNK d   0     -19.717  22.414  17.861  0.00  0.00     0.115 C 
BRANCH   5   6
ATOM      6  C   UNK d   0     -21.217  22.481  17.948  0.00  0.00     0.052 C 
BRANCH   6   7
ATOM      7  C   UNK d   0     -21.787  23.690  17.243  0.00  0.00    -0.020 A 
ATOM      8  C   UNK d   0     -22.384  23.727  16.080  0.00  0.00    -0.011 A 
ATOM      9  C   UNK d   0     -22.751  25.108  15.813  0.00  0.00     0.067 A 
ATOM     10  C   UNK d   0     -23.412  25.799  14.785  0.00  0.00     0.062 C 
ATOM     11  N   UNK d   0     -22.334  25.844  16.864  0.00  0.00    -0.248 NA
ATOM     12  C   UNK d   0     -23.923  27.101  14.832  0.00  0.00     0.041 A 
ATOM     13  N   UNK d   0     -23.409  28.237  15.342  0.00  0.00    -0.355 N 
ATOM     14  C   UNK d   0     -25.214  27.344  14.330  0.00  0.00    -0.022 A 
ATOM     15  C   UNK d   0     -24.345  29.192  15.183  0.00  0.00     0.042 A 
ATOM     16  H   UNK d   0     -22.398  28.365  15.787  0.00  0.00     0.166 HD
ATOM     17  C   UNK d   0     -24.327  30.556  15.536  0.00  0.00     0.062 C 
ATOM     18  C   UNK d   0     -25.491  28.670  14.552  0.00  0.00    -0.013 A 
ATOM     19  C   UNK d   0     -23.904  31.139  16.703  0.00  0.00     0.067 A 
ATOM     20  N   UNK d   0     -23.236  30.363  17.560  0.00  0.00    -0.248 NA
ATOM     21  C   UNK d   0     -24.003  32.457  17.308  0.00  0.00    -0.011 A 
ATOM     22  C   UNK d   0     -22.892  31.076  18.682  0.00  0.00     0.066 A 
ATOM     23  C   UNK d   0     -22.157  30.398  19.643  0.00  0.00     0.062 C 
ATOM     24  C   UNK d   0     -23.413  32.412  18.468  0.00  0.00    -0.020 A 
ATOM     25  C   UNK d   0     -21.643  29.094  19.571  0.00  0.00     0.041 A 
ATOM     26  N   UNK d   0     -22.159  27.962  19.078  0.00  0.00    -0.355 N 
ATOM     27  C   UNK d   0     -20.345  28.852  20.071  0.00  0.00    -0.022 A 
ATOM     28  C   UNK d   0     -21.231  27.006  19.243  0.00  0.00     0.042 A 
ATOM     29  H   UNK d   0     -23.179  27.832  18.640  0.00  0.00     0.166 HD
ATOM     30  C   UNK d   0     -21.240  25.643  18.905  0.00  0.00     0.062 C 
ATOM     31  C   UNK d   0     -20.076  27.534  19.867  0.00  0.00    -0.013 A 
ATOM     32  C   UNK d   0     -21.746  25.050  17.760  0.00  0.00     0.066 A 
BRANCH   8  33
ATOM     33  C   UNK d   0     -22.643  22.587  15.181  0.00  0.00     0.151 C 
BRANCH  33  34
ATOM     34  C   UNK d   0     -24.063  22.191  15.157  0.00  0.00     0.143 C 
ATOM     35  O   UNK d   0     -24.680  22.101  14.086  0.00  0.00    -0.650 OA
BRANCH  34  36
ATOM     36  O   UNK d   0     -24.708  21.920  16.341  0.00  0.00    -0.776 OA
ATOM     37  H   UNK d   0     -25.354  21.124  16.427  0.00  0.00     0.167 HD
ENDBRANCH  34  36
ENDBRANCH  33  34
ENDBRANCH   8  33
BRANCH  31  38
ATOM     38  C   UNK d   0     -18.796  26.818  20.230  0.00  0.00     0.151 C 
BRANCH  38  39
ATOM     39  C   UNK d   0     -18.724  26.472  21.633  0.00  0.00     0.143 C 
ATOM     40  O   UNK d   0     -19.678  25.956  22.241  0.00  0.00    -0.650 OA
BRANCH  39  41
ATOM     41  O   UNK d   0     -17.549  26.719  22.342  0.00  0.00    -0.776 OA
ATOM     42  H   UNK d   0     -16.909  27.415  21.946  0.00  0.00     0.167 HD
ENDBRANCH  39  41
ENDBRANCH  38  39
ENDBRANCH  31  38
BRANCH  27  43
ATOM     43  C   UNK d   0     -19.375  29.807  20.722  0.00  0.00     0.052 C 
BRANCH  43  44
ATOM     44  C   UNK d   0     -19.507  29.860  22.209  0.00  0.00     0.115 C 
BRANCH  44  45
ATOM     45  C   UNK d   0     -19.433  31.294  22.591  0.00  0.00     0.139 C 
ATOM     46  O   UNK d   0     -18.301  31.790  22.815  0.00  0.00    -0.650 OA
BRANCH  45  47
ATOM     47  O   UNK d   0     -20.548  32.096  22.703  0.00  0.00    -0.776 OA
ATOM     48  H   UNK d   0     -20.968  32.588  21.897  0.00  0.00     0.167 HD
ENDBRANCH  45  47
ENDBRANCH  44  45
ENDBRANCH  43  44
ENDBRANCH  27  43
BRANCH  24  49
ATOM     49  C   UNK d   0     -23.246  33.539  19.401  0.00  0.00     0.052 C 
BRANCH  49  50
ATOM     50  C   UNK d   0     -21.788  33.738  19.729  0.00  0.00     0.115 C 
BRANCH  50  51
ATOM     51  C   UNK d   0     -20.885  33.995  18.615  0.00  0.00     0.139 C 
ATOM     52  O   UNK d   0     -21.137  34.837  17.721  0.00  0.00    -0.650 OA
BRANCH  51  53
ATOM     53  O   UNK d   0     -19.696  33.289  18.518  0.00  0.00    -0.776 OA
ATOM     54  H   UNK d   0     -18.888  33.766  18.159  0.00  0.00     0.167 HD
ENDBRANCH  51  53
ENDBRANCH  50  51
ENDBRANCH  49  50
ENDBRANCH  24  49
BRANCH  21  55
ATOM     55  C   UNK d   0     -24.673  33.624  16.663  0.00  0.00     0.151 C 
BRANCH  55  56
ATOM     56  C   UNK d   0     -23.987  34.042  15.431  0.00  0.00     0.143 C 
ATOM     57  O   UNK d   0     -24.566  34.127  14.330  0.00  0.00    -0.650 OA
BRANCH  56  58
ATOM     58  O   UNK d   0     -22.631  34.354  15.517  0.00  0.00    -0.776 OA
ATOM     59  H   UNK d   0     -22.082  34.155  14.661  0.00  0.00     0.167 HD
ENDBRANCH  56  58
ENDBRANCH  55  56
ENDBRANCH  21  55
BRANCH  18  60
ATOM     60  C   UNK d   0     -26.779  29.359  14.176  0.00  0.00     0.151 C 
BRANCH  60  61
ATOM     61  C   UNK d   0     -27.690  29.161  15.314  0.00  0.00     0.143 C 
ATOM     62  O   UNK d   0     -27.539  29.572  16.465  0.00  0.00    -0.650 OA
BRANCH  61  63
ATOM     63  O   UNK d   0     -28.859  28.416  15.028  0.00  0.00    -0.776 OA
ATOM     64  H   UNK d   0     -28.898  27.427  15.198  0.00  0.00     0.167 HD
ENDBRANCH  61  63
ENDBRANCH  60  61
ENDBRANCH  18  60
BRANCH  14  65
ATOM     65  C   UNK d   0     -26.157  26.450  13.576  0.00  0.00     0.052 C 
BRANCH  65  66
ATOM     66  C   UNK d   0     -26.509  26.979  12.231  0.00  0.00     0.115 C 
BRANCH  66  67
ATOM     67  C   UNK d   0     -27.869  26.913  11.773  0.00  0.00     0.139 C 
ATOM     68  O   UNK d   0     -28.808  26.845  12.649  0.00  0.00    -0.650 OA
BRANCH  67  69
ATOM     69  O   UNK d   0     -28.327  26.913  10.456  0.00  0.00    -0.776 OA
ATOM     70  H   UNK d   0     -28.269  26.011   9.962  0.00  0.00     0.167 HD
ENDBRANCH  67  69
ENDBRANCH  66  67
ENDBRANCH  65  66
ENDBRANCH  14  65
ENDBRANCH   6   7
ENDBRANCH   5   6
ENDBRANCH   2   5
TORSDOF 28
ENDMDL
MODEL 9
REMARK VINA RESULT:      -7.1      2.432      6.156
REMARK  28 active torsions:
REMARK  status: ('A' for Active; 'I' for Inactive)
REMARK    1  A    between atoms: C_2  and  O_3 
REMARK    2  A    between atoms: C_2  and  C_4 
REMARK    3  A    between atoms: C_4  and  C_5 
REMARK    4  A    between atoms: C_5  and  C_6 
REMARK    5  A    between atoms: C_7  and  C_8 
REMARK    6  A    between atoms: C_8  and  C_9 
REMARK    7  A    between atoms: C_9  and  O_11 
REMARK    8  A    between atoms: C_28  and  C_29 
REMARK    9  A    between atoms: C_29  and  C_30 
REMARK   10  A    between atoms: C_30  and  O_32 
REMARK   11  A    between atoms: C_33  and  C_34 
REMARK   12  A    between atoms: C_34  and  C_35 
REMARK   13  A    between atoms: C_35  and  C_36 
REMARK   14  A    between atoms: C_36  and  O_38 
REMARK   15  A    between atoms: C_39  and  C_40 
REMARK   16  A    between atoms: C_40  and  C_41 
REMARK   17  A    between atoms: C_41  and  C_42 
REMARK   18  A    between atoms: C_42  and  O_44 
REMARK   19  A    between atoms: C_45  and  C_46 
REMARK   20  A    between atoms: C_46  and  C_47 
REMARK   21  A    between atoms: C_47  and  O_49 
REMARK   22  A    between atoms: C_50  and  C_51 
REMARK   23  A    between atoms: C_51  and  C_52 
REMARK   24  A    between atoms: C_52  and  O_54 
REMARK   25  A    between atoms: C_55  and  C_56 
REMARK   26  A    between atoms: C_56  and  C_57 
REMARK   27  A    between atoms: C_57  and  C_58 
REMARK   28  A    between atoms: C_58  and  O_60 
ROOT
ATOM      1  O   UNK d   0     -19.576  18.548  21.356  0.00  0.00    -0.650 OA
ATOM      2  C   UNK d   0     -18.885  18.995  20.414  0.00  0.00     0.139 C 
ENDROOT
BRANCH   2   3
ATOM      3  O   UNK d   0     -17.544  18.700  20.364  0.00  0.00    -0.776 OA
ATOM      4  H   UNK d   0     -17.167  17.877  20.839  0.00  0.00     0.167 HD
ENDBRANCH   2   3
BRANCH   2   5
ATOM      5  C   UNK d   0     -19.514  19.840  19.360  0.00  0.00     0.115 C 
BRANCH   5   6
ATOM      6  C   UNK d   0     -18.721  21.104  19.168  0.00  0.00     0.052 C 
BRANCH   6   7
ATOM      7  C   UNK d   0     -19.506  22.343  19.528  0.00  0.00    -0.020 A 
ATOM      8  C   UNK d   0     -19.690  22.854  20.718  0.00  0.00    -0.011 A 
ATOM      9  C   UNK d   0     -20.518  24.039  20.570  0.00  0.00     0.067 A 
ATOM     10  C   UNK d   0     -21.044  25.020  21.426  0.00  0.00     0.062 C 
ATOM     11  N   UNK d   0     -20.797  24.172  19.257  0.00  0.00    -0.248 NA
ATOM     12  C   UNK d   0     -21.594  26.254  21.063  0.00  0.00     0.041 A 
ATOM     13  N   UNK d   0     -22.438  26.590  20.068  0.00  0.00    -0.355 N 
ATOM     14  C   UNK d   0     -21.212  27.406  21.774  0.00  0.00    -0.022 A 
ATOM     15  C   UNK d   0     -22.594  27.926  20.126  0.00  0.00     0.042 A 
ATOM     16  H   UNK d   0     -22.929  25.894  19.353  0.00  0.00     0.166 HD
ATOM     17  C   UNK d   0     -23.366  28.791  19.324  0.00  0.00     0.062 C 
ATOM     18  C   UNK d   0     -21.841  28.473  21.182  0.00  0.00    -0.013 A 
ATOM     19  C   UNK d   0     -23.495  28.816  17.959  0.00  0.00     0.067 A 
ATOM     20  N   UNK d   0     -22.991  27.779  17.285  0.00  0.00    -0.248 NA
ATOM     21  C   UNK d   0     -24.054  29.732  16.979  0.00  0.00    -0.011 A 
ATOM     22  C   UNK d   0     -23.180  27.951  15.936  0.00  0.00     0.066 A 
ATOM     23  C   UNK d   0     -22.736  26.925  15.115  0.00  0.00     0.062 C 
ATOM     24  C   UNK d   0     -23.863  29.222  15.797  0.00  0.00    -0.020 A 
ATOM     25  C   UNK d   0     -22.197  25.687  15.501  0.00  0.00     0.041 A 
ATOM     26  N   UNK d   0     -21.347  25.355  16.479  0.00  0.00    -0.355 N 
ATOM     27  C   UNK d   0     -22.585  24.531  14.789  0.00  0.00    -0.022 A 
ATOM     28  C   UNK d   0     -21.182  24.024  16.419  0.00  0.00     0.042 A 
ATOM     29  H   UNK d   0     -20.846  26.057  17.191  0.00  0.00     0.166 HD
ATOM     30  C   UNK d   0     -20.410  23.153  17.203  0.00  0.00     0.062 C 
ATOM     31  C   UNK d   0     -21.948  23.475  15.363  0.00  0.00    -0.013 A 
ATOM     32  C   UNK d   0     -20.216  23.184  18.575  0.00  0.00     0.066 A 
BRANCH   8  33
ATOM     33  C   UNK d   0     -19.167  22.334  21.995  0.00  0.00     0.151 C 
BRANCH  33  34
ATOM     34  C   UNK d   0     -20.231  21.845  22.891  0.00  0.00     0.143 C 
ATOM     35  O   UNK d   0     -20.381  22.328  24.022  0.00  0.00    -0.650 OA
BRANCH  34  36
ATOM     36  O   UNK d   0     -21.064  20.838  22.463  0.00  0.00    -0.776 OA
ATOM     37  H   UNK d   0     -22.036  20.771  22.797  0.00  0.00     0.167 HD
ENDBRANCH  34  36
ENDBRANCH  33  34
ENDBRANCH   8  33
BRANCH  31  38
ATOM     38  C   UNK d   0     -22.068  22.027  14.946  0.00  0.00     0.151 C 
BRANCH  38  39
ATOM     39  C   UNK d   0     -23.117  21.324  15.653  0.00  0.00     0.143 C 
ATOM     40  O   UNK d   0     -24.239  21.125  15.153  0.00  0.00    -0.650 OA
BRANCH  39  41
ATOM     41  O   UNK d   0     -22.876  20.847  16.941  0.00  0.00    -0.776 OA
ATOM     42  H   UNK d   0     -23.668  20.416  17.429  0.00  0.00     0.167 HD
ENDBRANCH  39  41
ENDBRANCH  38  39
ENDBRANCH  31  38
BRANCH  27  43
ATOM     43  C   UNK d   0     -23.515  24.400  13.609  0.00  0.00     0.052 C 
BRANCH  43  44
ATOM     44  C   UNK d   0     -24.956  24.332  13.997  0.00  0.00     0.115 C 
BRANCH  44  45
ATOM     45  C   UNK d   0     -25.615  23.418  13.028  0.00  0.00     0.139 C 
ATOM     46  O   UNK d   0     -26.811  23.645  12.720  0.00  0.00    -0.650 OA
BRANCH  45  47
ATOM     47  O   UNK d   0     -24.969  22.344  12.456  0.00  0.00    -0.776 OA
ATOM     48  H   UNK d   0     -25.062  22.101  11.457  0.00  0.00     0.167 HD
ENDBRANCH  45  47
ENDBRANCH  44  45
ENDBRANCH  43  44
ENDBRANCH  27  43
BRANCH  24  49
ATOM     49  C   UNK d   0     -24.307  29.803  14.518  0.00  0.00     0.052 C 
BRANCH  49  50
ATOM     50  C   UNK d   0     -25.793  29.619  14.347  0.00  0.00     0.115 C 
BRANCH  50  51
ATOM     51  C   UNK d   0     -26.259  28.291  13.971  0.00  0.00     0.139 C 
ATOM     52  O   UNK d   0     -27.124  27.666  14.629  0.00  0.00    -0.650 OA
BRANCH  51  53
ATOM     53  O   UNK d   0     -25.738  27.674  12.844  0.00  0.00    -0.776 OA
ATOM     54  H   UNK d   0     -24.925  28.079  12.414  0.00  0.00     0.167 HD
ENDBRANCH  51  53
ENDBRANCH  50  51
ENDBRANCH  49  50
ENDBRANCH  24  49
BRANCH  21  55
ATOM     55  C   UNK d   0     -24.726  31.019  17.327  0.00  0.00     0.151 C 
BRANCH  55  56
ATOM     56  C   UNK d   0     -23.793  32.156  17.290  0.00  0.00     0.143 C 
ATOM     57  O   UNK d   0     -23.531  32.780  16.243  0.00  0.00    -0.650 OA
BRANCH  56  58
ATOM     58  O   UNK d   0     -23.185  32.537  18.485  0.00  0.00    -0.776 OA
ATOM     59  H   UNK d   0     -23.190  31.814  19.227  0.00  0.00     0.167 HD
ENDBRANCH  56  58
ENDBRANCH  55  56
ENDBRANCH  21  55
BRANCH  18  60
ATOM     60  C   UNK d   0     -21.705  29.909  21.623  0.00  0.00     0.151 C 
BRANCH  60  61
ATOM     61  C   UNK d   0     -20.767  30.535  20.678  0.00  0.00     0.143 C 
ATOM     62  O   UNK d   0     -21.014  31.434  19.874  0.00  0.00    -0.650 OA
BRANCH  61  63
ATOM     63  O   UNK d   0     -19.445  30.030  20.717  0.00  0.00    -0.776 OA
ATOM     64  H   UNK d   0     -18.750  30.345  20.064  0.00  0.00     0.167 HD
ENDBRANCH  61  63
ENDBRANCH  60  61
ENDBRANCH  18  60
BRANCH  14  65
ATOM     65  C   UNK d   0     -20.384  27.560  23.018  0.00  0.00     0.052 C 
BRANCH  65  66
ATOM     66  C   UNK d   0     -18.961  27.172  22.822  0.00  0.00     0.115 C 
BRANCH  66  67
ATOM     67  C   UNK d   0     -18.349  26.236  23.723  0.00  0.00     0.139 C 
ATOM     68  O   UNK d   0     -17.657  25.271  23.228  0.00  0.00    -0.650 OA
BRANCH  67  69
ATOM     69  O   UNK d   0     -18.405  26.231  25.116  0.00  0.00    -0.776 OA
ATOM     70  H   UNK d   0     -17.749  26.866  25.593  0.00  0.00     0.167 HD
ENDBRANCH  67  69
ENDBRANCH  66  67
ENDBRANCH  65  66
ENDBRANCH  14  65
ENDBRANCH   6   7
ENDBRANCH   5   6
ENDBRANCH   2   5
TORSDOF 28
ENDMDL
MODEL 10
REMARK VINA RESULT:      -7.0      1.557      4.048
REMARK  28 active torsions:
REMARK  status: ('A' for Active; 'I' for Inactive)
REMARK    1  A    between atoms: C_2  and  O_3 
REMARK    2  A    between atoms: C_2  and  C_4 
REMARK    3  A    between atoms: C_4  and  C_5 
REMARK    4  A    between atoms: C_5  and  C_6 
REMARK    5  A    between atoms: C_7  and  C_8 
REMARK    6  A    between atoms: C_8  and  C_9 
REMARK    7  A    between atoms: C_9  and  O_11 
REMARK    8  A    between atoms: C_28  and  C_29 
REMARK    9  A    between atoms: C_29  and  C_30 
REMARK   10  A    between atoms: C_30  and  O_32 
REMARK   11  A    between atoms: C_33  and  C_34 
REMARK   12  A    between atoms: C_34  and  C_35 
REMARK   13  A    between atoms: C_35  and  C_36 
REMARK   14  A    between atoms: C_36  and  O_38 
REMARK   15  A    between atoms: C_39  and  C_40 
REMARK   16  A    between atoms: C_40  and  C_41 
REMARK   17  A    between atoms: C_41  and  C_42 
REMARK   18  A    between atoms: C_42  and  O_44 
REMARK   19  A    between atoms: C_45  and  C_46 
REMARK   20  A    between atoms: C_46  and  C_47 
REMARK   21  A    between atoms: C_47  and  O_49 
REMARK   22  A    between atoms: C_50  and  C_51 
REMARK   23  A    between atoms: C_51  and  C_52 
REMARK   24  A    between atoms: C_52  and  O_54 
REMARK   25  A    between atoms: C_55  and  C_56 
REMARK   26  A    between atoms: C_56  and  C_57 
REMARK   27  A    between atoms: C_57  and  C_58 
REMARK   28  A    between atoms: C_58  and  O_60 
ROOT
ATOM      1  O   UNK d   0     -21.709  29.493  23.589  0.00  0.00    -0.650 OA
ATOM      2  C   UNK d   0     -20.553  29.899  23.340  0.00  0.00     0.139 C 
ENDROOT
BRANCH   2   3
ATOM      3  O   UNK d   0     -19.481  29.078  23.594  0.00  0.00    -0.776 OA
ATOM      4  H   UNK d   0     -19.060  29.033  24.524  0.00  0.00     0.167 HD
ENDBRANCH   2   3
BRANCH   2   5
ATOM      5  C   UNK d   0     -20.345  31.262  22.774  0.00  0.00     0.115 C 
BRANCH   5   6
ATOM      6  C   UNK d   0     -19.876  31.164  21.347  0.00  0.00     0.052 C 
BRANCH   6   7
ATOM      7  C   UNK d   0     -20.950  30.653  20.417  0.00  0.00    -0.020 A 
ATOM      8  C   UNK d   0     -22.020  31.285  20.009  0.00  0.00    -0.011 A 
ATOM      9  C   UNK d   0     -22.760  30.391  19.134  0.00  0.00     0.067 A 
ATOM     10  C   UNK d   0     -23.940  30.461  18.378  0.00  0.00     0.062 C 
ATOM     11  N   UNK d   0     -22.070  29.232  19.070  0.00  0.00    -0.248 NA
ATOM     12  C   UNK d   0     -24.352  29.585  17.367  0.00  0.00     0.041 A 
ATOM     13  N   UNK d   0     -24.317  28.241  17.290  0.00  0.00    -0.355 N 
ATOM     14  C   UNK d   0     -24.853  30.119  16.166  0.00  0.00    -0.022 A 
ATOM     15  C   UNK d   0     -24.776  27.909  16.069  0.00  0.00     0.042 A 
ATOM     16  H   UNK d   0     -23.993  27.540  18.091  0.00  0.00     0.166 HD
ATOM     17  C   UNK d   0     -24.949  26.645  15.470  0.00  0.00     0.062 C 
ATOM     18  C   UNK d   0     -25.122  29.060  15.335  0.00  0.00    -0.013 A 
ATOM     19  C   UNK d   0     -24.096  25.571  15.462  0.00  0.00     0.067 A 
ATOM     20  N   UNK d   0     -23.043  25.628  16.282  0.00  0.00    -0.248 NA
ATOM     21  C   UNK d   0     -24.013  24.309  14.746  0.00  0.00    -0.011 A 
ATOM     22  C   UNK d   0     -22.277  24.496  16.153  0.00  0.00     0.066 A 
ATOM     23  C   UNK d   0     -21.165  24.406  16.978  0.00  0.00     0.062 C 
ATOM     24  C   UNK d   0     -22.944  23.686  15.152  0.00  0.00    -0.020 A 
ATOM     25  C   UNK d   0     -20.776  25.291  17.995  0.00  0.00     0.041 A 
ATOM     26  N   UNK d   0     -20.797  26.627  18.066  0.00  0.00    -0.355 N 
ATOM     27  C   UNK d   0     -20.277  24.754  19.202  0.00  0.00    -0.022 A 
ATOM     28  C   UNK d   0     -20.332  26.961  19.280  0.00  0.00     0.042 A 
ATOM     29  H   UNK d   0     -21.113  27.331  17.257  0.00  0.00     0.166 HD
ATOM     30  C   UNK d   0     -20.146  28.214  19.885  0.00  0.00     0.062 C 
ATOM     31  C   UNK d   0     -19.994  25.804  20.021  0.00  0.00    -0.013 A 
ATOM     32  C   UNK d   0     -20.971  29.326  19.820  0.00  0.00     0.066 A 
BRANCH   8  33
ATOM     33  C   UNK d   0     -22.427  32.658  20.364  0.00  0.00     0.151 C 
BRANCH  33  34
ATOM     34  C   UNK d   0     -22.026  33.652  19.352  0.00  0.00     0.143 C 
ATOM     35  O   UNK d   0     -20.970  33.523  18.717  0.00  0.00    -0.650 OA
BRANCH  34  36
ATOM     36  O   UNK d   0     -22.837  34.737  19.113  0.00  0.00    -0.776 OA
ATOM     37  H   UNK d   0     -22.460  35.695  19.109  0.00  0.00     0.167 HD
ENDBRANCH  34  36
ENDBRANCH  33  34
ENDBRANCH   8  33
BRANCH  31  38
ATOM     38  C   UNK d   0     -19.449  25.715  21.427  0.00  0.00     0.151 C 
BRANCH  38  39
ATOM     39  C   UNK d   0     -20.469  25.899  22.438  0.00  0.00     0.143 C 
ATOM     40  O   UNK d   0     -20.207  26.316  23.580  0.00  0.00    -0.650 OA
BRANCH  39  41
ATOM     41  O   UNK d   0     -21.797  25.603  22.134  0.00  0.00    -0.776 OA
ATOM     42  H   UNK d   0     -22.470  25.652  22.905  0.00  0.00     0.167 HD
ENDBRANCH  39  41
ENDBRANCH  38  39
ENDBRANCH  31  38
BRANCH  27  43
ATOM     43  C   UNK d   0     -20.063  23.313  19.594  0.00  0.00     0.052 C 
BRANCH  43  44
ATOM     44  C   UNK d   0     -21.245  22.704  20.276  0.00  0.00     0.115 C 
BRANCH  44  45
ATOM     45  C   UNK d   0     -21.759  21.645  19.369  0.00  0.00     0.139 C 
ATOM     46  O   UNK d   0     -23.003  21.507  19.266  0.00  0.00    -0.650 OA
BRANCH  45  47
ATOM     47  O   UNK d   0     -20.931  20.819  18.640  0.00  0.00    -0.776 OA
ATOM     48  H   UNK d   0     -21.217  19.879  18.322  0.00  0.00     0.167 HD
ENDBRANCH  45  47
ENDBRANCH  44  45
ENDBRANCH  43  44
ENDBRANCH  27  43
BRANCH  24  49
ATOM     49  C   UNK d   0     -22.496  22.353  14.714  0.00  0.00     0.052 C 
BRANCH  49  50
ATOM     50  C   UNK d   0     -22.942  21.301  15.697  0.00  0.00     0.115 C 
BRANCH  50  51
ATOM     51  C   UNK d   0     -23.642  20.143  15.159  0.00  0.00     0.139 C 
ATOM     52  O   UNK d   0     -24.582  20.242  14.335  0.00  0.00    -0.650 OA
BRANCH  51  53
ATOM     53  O   UNK d   0     -23.272  18.869  15.563  0.00  0.00    -0.776 OA
ATOM     54  H   UNK d   0     -22.300  18.621  15.521  0.00  0.00     0.167 HD
ENDBRANCH  51  53
ENDBRANCH  50  51
ENDBRANCH  49  50
ENDBRANCH  24  49
BRANCH  21  55
ATOM     55  C   UNK d   0     -25.012  23.855  13.735  0.00  0.00     0.151 C 
BRANCH  55  56
ATOM     56  C   UNK d   0     -26.309  23.531  14.349  0.00  0.00     0.143 C 
ATOM     57  O   UNK d   0     -27.303  24.279  14.262  0.00  0.00    -0.650 OA
BRANCH  56  58
ATOM     58  O   UNK d   0     -26.413  22.332  15.052  0.00  0.00    -0.776 OA
ATOM     59  H   UNK d   0     -27.117  21.668  14.682  0.00  0.00     0.167 HD
ENDBRANCH  56  58
ENDBRANCH  55  56
ENDBRANCH  21  55
BRANCH  18  60
ATOM     60  C   UNK d   0     -25.670  29.178  13.934  0.00  0.00     0.151 C 
BRANCH  60  61
ATOM     61  C   UNK d   0     -27.078  28.760  14.015  0.00  0.00     0.143 C 
ATOM     62  O   UNK d   0     -27.876  29.014  14.917  0.00  0.00    -0.650 OA
BRANCH  61  63
ATOM     63  O   UNK d   0     -27.539  27.985  12.925  0.00  0.00    -0.776 OA
ATOM     64  H   UNK d   0     -27.765  27.012  13.039  0.00  0.00     0.167 HD
ENDBRANCH  61  63
ENDBRANCH  60  61
ENDBRANCH  18  60
BRANCH  14  65
ATOM     65  C   UNK d   0     -25.187  31.534  15.786  0.00  0.00     0.052 C 
BRANCH  65  66
ATOM     66  C   UNK d   0     -24.008  32.299  15.300  0.00  0.00     0.115 C 
BRANCH  66  67
ATOM     67  C   UNK d   0     -23.583  33.476  16.005  0.00  0.00     0.139 C 
ATOM     68  O   UNK d   0     -24.442  34.100  16.729  0.00  0.00    -0.650 OA
BRANCH  67  69
ATOM     69  O   UNK d   0     -22.315  34.056  16.010  0.00  0.00    -0.776 OA
ATOM     70  H   UNK d   0     -22.294  35.086  16.004  0.00  0.00     0.167 HD
ENDBRANCH  67  69
ENDBRANCH  66  67
ENDBRANCH  65  66
ENDBRANCH  14  65
ENDBRANCH   6   7
ENDBRANCH   5   6
ENDBRANCH   2   5
TORSDOF 28
ENDMDL
MODEL 11
REMARK VINA RESULT:      -7.0      1.455      8.054
REMARK  28 active torsions:
REMARK  status: ('A' for Active; 'I' for Inactive)
REMARK    1  A    between atoms: C_2  and  O_3 
REMARK    2  A    between atoms: C_2  and  C_4 
REMARK    3  A    between atoms: C_4  and  C_5 
REMARK    4  A    between atoms: C_5  and  C_6 
REMARK    5  A    between atoms: C_7  and  C_8 
REMARK    6  A    between atoms: C_8  and  C_9 
REMARK    7  A    between atoms: C_9  and  O_11 
REMARK    8  A    between atoms: C_28  and  C_29 
REMARK    9  A    between atoms: C_29  and  C_30 
REMARK   10  A    between atoms: C_30  and  O_32 
REMARK   11  A    between atoms: C_33  and  C_34 
REMARK   12  A    between atoms: C_34  and  C_35 
REMARK   13  A    between atoms: C_35  and  C_36 
REMARK   14  A    between atoms: C_36  and  O_38 
REMARK   15  A    between atoms: C_39  and  C_40 
REMARK   16  A    between atoms: C_40  and  C_41 
REMARK   17  A    between atoms: C_41  and  C_42 
REMARK   18  A    between atoms: C_42  and  O_44 
REMARK   19  A    between atoms: C_45  and  C_46 
REMARK   20  A    between atoms: C_46  and  C_47 
REMARK   21  A    between atoms: C_47  and  O_49 
REMARK   22  A    between atoms: C_50  and  C_51 
REMARK   23  A    between atoms: C_51  and  C_52 
REMARK   24  A    between atoms: C_52  and  O_54 
REMARK   25  A    between atoms: C_55  and  C_56 
REMARK   26  A    between atoms: C_56  and  C_57 
REMARK   27  A    between atoms: C_57  and  C_58 
REMARK   28  A    between atoms: C_58  and  O_60 
ROOT
ATOM      1  O   UNK d   0     -24.085  21.426  14.197  0.00  0.00    -0.650 OA
ATOM      2  C   UNK d   0     -22.989  22.012  14.049  0.00  0.00     0.139 C 
ENDROOT
BRANCH   2   3
ATOM      3  O   UNK d   0     -22.762  22.735  12.902  0.00  0.00    -0.776 OA
ATOM      4  H   UNK d   0     -22.442  23.704  12.945  0.00  0.00     0.167 HD
ENDBRANCH   2   3
BRANCH   2   5
ATOM      5  C   UNK d   0     -21.945  21.925  15.109  0.00  0.00     0.115 C 
BRANCH   5   6
ATOM      6  C   UNK d   0     -22.590  21.811  16.463  0.00  0.00     0.052 C 
BRANCH   6   7
ATOM      7  C   UNK d   0     -22.349  23.027  17.326  0.00  0.00    -0.020 A 
ATOM      8  C   UNK d   0     -21.604  23.111  18.398  0.00  0.00    -0.011 A 
ATOM      9  C   UNK d   0     -21.687  24.475  18.892  0.00  0.00     0.067 A 
ATOM     10  C   UNK d   0     -21.129  25.203  19.955  0.00  0.00     0.062 C 
ATOM     11  N   UNK d   0     -22.508  25.152  18.063  0.00  0.00    -0.248 NA
ATOM     12  C   UNK d   0     -21.107  26.593  20.111  0.00  0.00     0.041 A 
ATOM     13  N   UNK d   0     -22.058  27.523  19.900  0.00  0.00    -0.355 N 
ATOM     14  C   UNK d   0     -19.908  27.216  20.501  0.00  0.00    -0.022 A 
ATOM     15  C   UNK d   0     -21.490  28.721  20.139  0.00  0.00     0.042 A 
ATOM     16  H   UNK d   0     -23.114  27.336  19.607  0.00  0.00     0.166 HD
ATOM     17  C   UNK d   0     -22.033  30.019  20.070  0.00  0.00     0.062 C 
ATOM     18  C   UNK d   0     -20.142  28.568  20.518  0.00  0.00    -0.013 A 
ATOM     19  C   UNK d   0     -22.829  30.570  19.098  0.00  0.00     0.067 A 
ATOM     20  N   UNK d   0     -23.334  29.737  18.185  0.00  0.00    -0.248 NA
ATOM     21  C   UNK d   0     -23.292  31.906  18.761  0.00  0.00    -0.011 A 
ATOM     22  C   UNK d   0     -24.093  30.431  17.275  0.00  0.00     0.066 A 
ATOM     23  C   UNK d   0     -24.711  29.678  16.287  0.00  0.00     0.062 C 
ATOM     24  C   UNK d   0     -24.028  31.818  17.691  0.00  0.00    -0.020 A 
ATOM     25  C   UNK d   0     -24.731  28.281  16.156  0.00  0.00     0.041 A 
ATOM     26  N   UNK d   0     -23.782  27.357  16.351  0.00  0.00    -0.355 N 
ATOM     27  C   UNK d   0     -25.937  27.657  15.768  0.00  0.00    -0.022 A 
ATOM     28  C   UNK d   0     -24.344  26.163  16.104  0.00  0.00     0.042 A 
ATOM     29  H   UNK d   0     -22.718  27.548  16.635  0.00  0.00     0.166 HD
ATOM     30  C   UNK d   0     -23.813  24.865  16.160  0.00  0.00     0.062 C 
ATOM     31  C   UNK d   0     -25.701  26.317  15.734  0.00  0.00    -0.013 A 
ATOM     32  C   UNK d   0     -22.940  24.338  17.099  0.00  0.00     0.066 A 
BRANCH   8  33
ATOM     33  C   UNK d   0     -20.818  22.027  19.016  0.00  0.00     0.151 C 
BRANCH  33  34
ATOM     34  C   UNK d   0     -19.452  21.931  18.471  0.00  0.00     0.143 C 
ATOM     35  O   UNK d   0     -18.587  21.249  19.038  0.00  0.00    -0.650 OA
BRANCH  34  36
ATOM     36  O   UNK d   0     -19.135  22.611  17.318  0.00  0.00    -0.776 OA
ATOM     37  H   UNK d   0     -18.301  22.369  16.766  0.00  0.00     0.167 HD
ENDBRANCH  34  36
ENDBRANCH  33  34
ENDBRANCH   8  33
BRANCH  31  38
ATOM     38  C   UNK d   0     -26.705  25.243  15.383  0.00  0.00     0.151 C 
BRANCH  38  39
ATOM     39  C   UNK d   0     -26.503  24.697  14.058  0.00  0.00     0.143 C 
ATOM     40  O   UNK d   0     -26.469  25.412  13.041  0.00  0.00    -0.650 OA
BRANCH  39  41
ATOM     41  O   UNK d   0     -26.339  23.321  13.901  0.00  0.00    -0.776 OA
ATOM     42  H   UNK d   0     -25.491  23.010  13.417  0.00  0.00     0.167 HD
ENDBRANCH  39  41
ENDBRANCH  38  39
ENDBRANCH  31  38
BRANCH  27  43
ATOM     43  C   UNK d   0     -27.272  28.274  15.435  0.00  0.00     0.052 C 
BRANCH  43  44
ATOM     44  C   UNK d   0     -27.416  28.626  13.990  0.00  0.00     0.115 C 
BRANCH  44  45
ATOM     45  C   UNK d   0     -28.765  28.163  13.572  0.00  0.00     0.139 C 
ATOM     46  O   UNK d   0     -29.315  27.258  14.248  0.00  0.00    -0.650 OA
BRANCH  45  47
ATOM     47  O   UNK d   0     -29.432  28.686  12.486  0.00  0.00    -0.776 OA
ATOM     48  H   UNK d   0     -29.944  28.100  11.807  0.00  0.00     0.167 HD
ENDBRANCH  45  47
ENDBRANCH  44  45
ENDBRANCH  43  44
ENDBRANCH  27  43
BRANCH  24  49
ATOM     49  C   UNK d   0     -24.731  32.929  17.026  0.00  0.00     0.052 C 
BRANCH  49  50
ATOM     50  C   UNK d   0     -24.597  32.813  15.529  0.00  0.00     0.115 C 
BRANCH  50  51
ATOM     51  C   UNK d   0     -23.979  33.930  14.828  0.00  0.00     0.139 C 
ATOM     52  O   UNK d   0     -24.434  34.388  13.753  0.00  0.00    -0.650 OA
BRANCH  51  53
ATOM     53  O   UNK d   0     -22.841  34.523  15.351  0.00  0.00    -0.776 OA
ATOM     54  H   UNK d   0     -22.710  35.509  15.207  0.00  0.00     0.167 HD
ENDBRANCH  51  53
ENDBRANCH  50  51
ENDBRANCH  49  50
ENDBRANCH  24  49
BRANCH  21  55
ATOM     55  C   UNK d   0     -22.955  33.130  19.546  0.00  0.00     0.151 C 
BRANCH  55  56
ATOM     56  C   UNK d   0     -21.731  33.781  19.055  0.00  0.00     0.143 C 
ATOM     57  O   UNK d   0     -21.751  34.753  18.274  0.00  0.00    -0.650 OA
BRANCH  56  58
ATOM     58  O   UNK d   0     -20.507  33.276  19.491  0.00  0.00    -0.776 OA
ATOM     59  H   UNK d   0     -20.294  33.452  20.489  0.00  0.00     0.167 HD
ENDBRANCH  56  58
ENDBRANCH  55  56
ENDBRANCH  21  55
BRANCH  18  60
ATOM     60  C   UNK d   0     -19.120  29.618  20.876  0.00  0.00     0.151 C 
BRANCH  60  61
ATOM     61  C   UNK d   0     -19.667  30.336  22.037  0.00  0.00     0.143 C 
ATOM     62  O   UNK d   0     -20.132  29.840  23.064  0.00  0.00    -0.650 OA
BRANCH  61  63
ATOM     63  O   UNK d   0     -19.645  31.748  21.938  0.00  0.00    -0.776 OA
ATOM     64  H   UNK d   0     -19.614  32.204  21.044  0.00  0.00     0.167 HD
ENDBRANCH  61  63
ENDBRANCH  60  61
ENDBRANCH  18  60
BRANCH  14  65
ATOM     65  C   UNK d   0     -18.599  26.629  20.950  0.00  0.00     0.052 C 
BRANCH  65  66
ATOM     66  C   UNK d   0     -18.704  25.892  22.238  0.00  0.00     0.115 C 
BRANCH  66  67
ATOM     67  C   UNK d   0     -19.266  26.543  23.387  0.00  0.00     0.139 C 
ATOM     68  O   UNK d   0     -20.425  26.168  23.799  0.00  0.00    -0.650 OA
BRANCH  67  69
ATOM     69  O   UNK d   0     -18.704  27.568  24.148  0.00  0.00    -0.776 OA
ATOM     70  H   UNK d   0     -19.354  28.305  24.456  0.00  0.00     0.167 HD
ENDBRANCH  67  69
ENDBRANCH  66  67
ENDBRANCH  65  66
ENDBRANCH  14  65
ENDBRANCH   6   7
ENDBRANCH   5   6
ENDBRANCH   2   5
TORSDOF 28
ENDMDL
MODEL 12
REMARK VINA RESULT:      -7.0      5.517     11.539
REMARK  28 active torsions:
REMARK  status: ('A' for Active; 'I' for Inactive)
REMARK    1  A    between atoms: C_2  and  O_3 
REMARK    2  A    between atoms: C_2  and  C_4 
REMARK    3  A    between atoms: C_4  and  C_5 
REMARK    4  A    between atoms: C_5  and  C_6 
REMARK    5  A    between atoms: C_7  and  C_8 
REMARK    6  A    between atoms: C_8  and  C_9 
REMARK    7  A    between atoms: C_9  and  O_11 
REMARK    8  A    between atoms: C_28  and  C_29 
REMARK    9  A    between atoms: C_29  and  C_30 
REMARK   10  A    between atoms: C_30  and  O_32 
REMARK   11  A    between atoms: C_33  and  C_34 
REMARK   12  A    between atoms: C_34  and  C_35 
REMARK   13  A    between atoms: C_35  and  C_36 
REMARK   14  A    between atoms: C_36  and  O_38 
REMARK   15  A    between atoms: C_39  and  C_40 
REMARK   16  A    between atoms: C_40  and  C_41 
REMARK   17  A    between atoms: C_41  and  C_42 
REMARK   18  A    between atoms: C_42  and  O_44 
REMARK   19  A    between atoms: C_45  and  C_46 
REMARK   20  A    between atoms: C_46  and  C_47 
REMARK   21  A    between atoms: C_47  and  O_49 
REMARK   22  A    between atoms: C_50  and  C_51 
REMARK   23  A    between atoms: C_51  and  C_52 
REMARK   24  A    between atoms: C_52  and  O_54 
REMARK   25  A    between atoms: C_55  and  C_56 
REMARK   26  A    between atoms: C_56  and  C_57 
REMARK   27  A    between atoms: C_57  and  C_58 
REMARK   28  A    between atoms: C_58  and  O_60 
ROOT
ATOM      1  O   UNK d   0     -27.259  15.917  18.428  0.00  0.00    -0.650 OA
ATOM      2  C   UNK d   0     -26.888  14.800  18.005  0.00  0.00     0.139 C 
ENDROOT
BRANCH   2   3
ATOM      3  O   UNK d   0     -27.193  13.671  18.727  0.00  0.00    -0.776 OA
ATOM      4  H   UNK d   0     -28.123  13.538  19.131  0.00  0.00     0.167 HD
ENDBRANCH   2   3
BRANCH   2   5
ATOM      5  C   UNK d   0     -26.123  14.699  16.730  0.00  0.00     0.115 C 
BRANCH   5   6
ATOM      6  C   UNK d   0     -24.673  14.417  17.018  0.00  0.00     0.052 C 
BRANCH   6   7
ATOM      7  C   UNK d   0     -23.961  15.601  17.627  0.00  0.00    -0.020 A 
ATOM      8  C   UNK d   0     -23.336  15.652  18.776  0.00  0.00    -0.011 A 
ATOM      9  C   UNK d   0     -22.816  16.999  18.940  0.00  0.00     0.067 A 
ATOM     10  C   UNK d   0     -22.060  17.682  19.906  0.00  0.00     0.062 C 
ATOM     11  N   UNK d   0     -23.175  17.703  17.846  0.00  0.00    -0.248 NA
ATOM     12  C   UNK d   0     -21.413  18.914  19.759  0.00  0.00     0.041 A 
ATOM     13  N   UNK d   0     -21.812  20.062  19.180  0.00  0.00    -0.355 N 
ATOM     14  C   UNK d   0     -20.091  19.047  20.223  0.00  0.00    -0.022 A 
ATOM     15  C   UNK d   0     -20.776  20.918  19.257  0.00  0.00     0.042 A 
ATOM     16  H   UNK d   0     -22.814  20.270  18.743  0.00  0.00     0.166 HD
ATOM     17  C   UNK d   0     -20.655  22.248  18.809  0.00  0.00     0.062 C 
ATOM     18  C   UNK d   0     -19.679  20.317  19.904  0.00  0.00    -0.013 A 
ATOM     19  C   UNK d   0     -21.040  22.794  17.611  0.00  0.00     0.067 A 
ATOM     20  N   UNK d   0     -21.808  22.038  16.822  0.00  0.00    -0.248 NA
ATOM     21  C   UNK d   0     -20.813  24.049  16.914  0.00  0.00    -0.011 A 
ATOM     22  C   UNK d   0     -22.098  22.707  15.658  0.00  0.00     0.066 A 
ATOM     23  C   UNK d   0     -22.924  22.049  14.758  0.00  0.00     0.062 C 
ATOM     24  C   UNK d   0     -21.432  23.990  15.769  0.00  0.00    -0.020 A 
ATOM     25  C   UNK d   0     -23.575  20.818  14.930  0.00  0.00     0.041 A 
ATOM     26  N   UNK d   0     -23.172  19.672  15.492  0.00  0.00    -0.355 N 
ATOM     27  C   UNK d   0     -24.903  20.686  14.468  0.00  0.00    -0.022 A 
ATOM     28  C   UNK d   0     -24.201  18.814  15.409  0.00  0.00     0.042 A 
ATOM     29  H   UNK d   0     -22.162  19.461  15.922  0.00  0.00     0.166 HD
ATOM     30  C   UNK d   0     -24.332  17.485  15.842  0.00  0.00     0.062 C 
ATOM     31  C   UNK d   0     -25.307  19.421  14.768  0.00  0.00    -0.013 A 
ATOM     32  C   UNK d   0     -23.866  16.919  17.017  0.00  0.00     0.066 A 
BRANCH   8  33
ATOM     33  C   UNK d   0     -23.180  14.554  19.748  0.00  0.00     0.151 C 
BRANCH  33  34
ATOM     34  C   UNK d   0     -24.393  14.331  20.556  0.00  0.00     0.143 C 
ATOM     35  O   UNK d   0     -24.973  15.278  21.107  0.00  0.00    -0.650 OA
BRANCH  34  36
ATOM     36  O   UNK d   0     -24.883  13.054  20.701  0.00  0.00    -0.776 OA
ATOM     37  H   UNK d   0     -24.287  12.289  21.046  0.00  0.00     0.167 HD
ENDBRANCH  34  36
ENDBRANCH  33  34
ENDBRANCH   8  33
BRANCH  31  38
ATOM     38  C   UNK d   0     -26.665  18.827  14.477  0.00  0.00     0.151 C 
BRANCH  38  39
ATOM     39  C   UNK d   0     -27.649  19.153  15.488  0.00  0.00     0.143 C 
ATOM     40  O   UNK d   0     -27.461  18.928  16.696  0.00  0.00    -0.650 OA
BRANCH  39  41
ATOM     41  O   UNK d   0     -28.855  19.741  15.107  0.00  0.00    -0.776 OA
ATOM     42  H   UNK d   0     -29.529  19.936  15.854  0.00  0.00     0.167 HD
ENDBRANCH  39  41
ENDBRANCH  38  39
ENDBRANCH  31  38
BRANCH  27  43
ATOM     43  C   UNK d   0     -25.778  21.694  13.767  0.00  0.00     0.052 C 
BRANCH  43  44
ATOM     44  C   UNK d   0     -26.223  22.810  14.657  0.00  0.00     0.115 C 
BRANCH  44  45
ATOM     45  C   UNK d   0     -26.084  24.062  13.869  0.00  0.00     0.139 C 
ATOM     46  O   UNK d   0     -26.451  25.139  14.400  0.00  0.00    -0.650 OA
BRANCH  45  47
ATOM     47  O   UNK d   0     -25.568  24.088  12.591  0.00  0.00    -0.776 OA
ATOM     48  H   UNK d   0     -24.849  23.422  12.264  0.00  0.00     0.167 HD
ENDBRANCH  45  47
ENDBRANCH  44  45
ENDBRANCH  43  44
ENDBRANCH  27  43
BRANCH  24  49
ATOM     49  C   UNK d   0     -21.498  25.062  14.762  0.00  0.00     0.052 C 
BRANCH  49  50
ATOM     50  C   UNK d   0     -22.922  25.517  14.572  0.00  0.00     0.115 C 
BRANCH  50  51
ATOM     51  C   UNK d   0     -23.370  26.651  15.368  0.00  0.00     0.139 C 
ATOM     52  O   UNK d   0     -22.843  27.785  15.286  0.00  0.00    -0.650 OA
BRANCH  51  53
ATOM     53  O   UNK d   0     -24.419  26.491  16.261  0.00  0.00    -0.776 OA
ATOM     54  H   UNK d   0     -25.092  25.767  16.079  0.00  0.00     0.167 HD
ENDBRANCH  51  53
ENDBRANCH  50  51
ENDBRANCH  49  50
ENDBRANCH  24  49
BRANCH  21  55
ATOM     55  C   UNK d   0     -20.006  25.177  17.465  0.00  0.00     0.151 C 
BRANCH  55  56
ATOM     56  C   UNK d   0     -20.853  26.217  18.069  0.00  0.00     0.143 C 
ATOM     57  O   UNK d   0     -21.560  26.012  19.075  0.00  0.00    -0.650 OA
BRANCH  56  58
ATOM     58  O   UNK d   0     -20.851  27.479  17.477  0.00  0.00    -0.776 OA
ATOM     59  H   UNK d   0     -21.229  28.240  18.071  0.00  0.00     0.167 HD
ENDBRANCH  56  58
ENDBRANCH  55  56
ENDBRANCH  21  55
BRANCH  18  60
ATOM     60  C   UNK d   0     -18.315  20.885  20.210  0.00  0.00     0.151 C 
BRANCH  60  61
ATOM     61  C   UNK d   0     -18.427  21.510  21.537  0.00  0.00     0.143 C 
ATOM     62  O   UNK d   0     -19.193  22.415  21.869  0.00  0.00    -0.650 OA
BRANCH  61  63
ATOM     63  O   UNK d   0     -17.548  20.996  22.521  0.00  0.00    -0.776 OA
ATOM     64  H   UNK d   0     -17.172  21.588  23.240  0.00  0.00     0.167 HD
ENDBRANCH  61  63
ENDBRANCH  60  61
ENDBRANCH  18  60
BRANCH  14  65
ATOM     65  C   UNK d   0     -19.233  18.109  21.023  0.00  0.00     0.052 C 
BRANCH  65  66
ATOM     66  C   UNK d   0     -19.584  18.089  22.468  0.00  0.00     0.115 C 
BRANCH  66  67
ATOM     67  C   UNK d   0     -18.541  18.097  23.455  0.00  0.00     0.139 C 
ATOM     68  O   UNK d   0     -18.859  17.911  24.686  0.00  0.00    -0.650 OA
BRANCH  67  69
ATOM     69  O   UNK d   0     -17.175  18.287  23.250  0.00  0.00    -0.776 OA
ATOM     70  H   UNK d   0     -16.892  18.503  22.283  0.00  0.00     0.167 HD
ENDBRANCH  67  69
ENDBRANCH  66  67
ENDBRANCH  65  66
ENDBRANCH  14  65
ENDBRANCH   6   7
ENDBRANCH   5   6
ENDBRANCH   2   5
TORSDOF 28
ENDMDL
MODEL 13
REMARK VINA RESULT:      -6.9     21.677     24.163
REMARK  28 active torsions:
REMARK  status: ('A' for Active; 'I' for Inactive)
REMARK    1  A    between atoms: C_2  and  O_3 
REMARK    2  A    between atoms: C_2  and  C_4 
REMARK    3  A    between atoms: C_4  and  C_5 
REMARK    4  A    between atoms: C_5  and  C_6 
REMARK    5  A    between atoms: C_7  and  C_8 
REMARK    6  A    between atoms: C_8  and  C_9 
REMARK    7  A    between atoms: C_9  and  O_11 
REMARK    8  A    between atoms: C_28  and  C_29 
REMARK    9  A    between atoms: C_29  and  C_30 
REMARK   10  A    between atoms: C_30  and  O_32 
REMARK   11  A    between atoms: C_33  and  C_34 
REMARK   12  A    between atoms: C_34  and  C_35 
REMARK   13  A    between atoms: C_35  and  C_36 
REMARK   14  A    between atoms: C_36  and  O_38 
REMARK   15  A    between atoms: C_39  and  C_40 
REMARK   16  A    between atoms: C_40  and  C_41 
REMARK   17  A    between atoms: C_41  and  C_42 
REMARK   18  A    between atoms: C_42  and  O_44 
REMARK   19  A    between atoms: C_45  and  C_46 
REMARK   20  A    between atoms: C_46  and  C_47 
REMARK   21  A    between atoms: C_47  and  O_49 
REMARK   22  A    between atoms: C_50  and  C_51 
REMARK   23  A    between atoms: C_51  and  C_52 
REMARK   24  A    between atoms: C_52  and  O_54 
REMARK   25  A    between atoms: C_55  and  C_56 
REMARK   26  A    between atoms: C_56  and  C_57 
REMARK   27  A    between atoms: C_57  and  C_58 
REMARK   28  A    between atoms: C_58  and  O_60 
ROOT
ATOM      1  O   UNK d   0     -28.432  10.146   1.074  0.00  0.00    -0.650 OA
ATOM      2  C   UNK d   0     -28.874   9.472   2.031  0.00  0.00     0.139 C 
ENDROOT
BRANCH   2   3
ATOM      3  O   UNK d   0     -28.021   8.648   2.725  0.00  0.00    -0.776 OA
ATOM      4  H   UNK d   0     -28.017   8.632   3.746  0.00  0.00     0.167 HD
ENDBRANCH   2   3
BRANCH   2   5
ATOM      5  C   UNK d   0     -30.312   9.565   2.410  0.00  0.00     0.115 C 
BRANCH   5   6
ATOM      6  C   UNK d   0     -30.460  10.338   3.693  0.00  0.00     0.052 C 
BRANCH   6   7
ATOM      7  C   UNK d   0     -30.941  11.751   3.467  0.00  0.00    -0.020 A 
ATOM      8  C   UNK d   0     -30.216  12.837   3.378  0.00  0.00    -0.011 A 
ATOM      9  C   UNK d   0     -31.117  13.958   3.168  0.00  0.00     0.067 A 
ATOM     10  C   UNK d   0     -30.984  15.342   2.977  0.00  0.00     0.062 C 
ATOM     11  N   UNK d   0     -32.373  13.464   3.148  0.00  0.00    -0.248 NA
ATOM     12  C   UNK d   0     -31.958  16.230   2.510  0.00  0.00     0.041 A 
ATOM     13  N   UNK d   0     -33.269  16.340   2.799  0.00  0.00    -0.355 N 
ATOM     14  C   UNK d   0     -31.606  17.171   1.525  0.00  0.00    -0.022 A 
ATOM     15  C   UNK d   0     -33.759  17.321   2.017  0.00  0.00     0.042 A 
ATOM     16  H   UNK d   0     -33.833  15.750   3.554  0.00  0.00     0.166 HD
ATOM     17  C   UNK d   0     -35.064  17.844   1.917  0.00  0.00     0.062 C 
ATOM     18  C   UNK d   0     -32.746  17.866   1.205  0.00  0.00    -0.013 A 
ATOM     19  C   UNK d   0     -36.258  17.173   1.855  0.00  0.00     0.067 A 
ATOM     20  N   UNK d   0     -36.232  15.864   2.118  0.00  0.00    -0.248 NA
ATOM     21  C   UNK d   0     -37.636  17.519   1.546  0.00  0.00    -0.011 A 
ATOM     22  C   UNK d   0     -37.491  15.329   2.003  0.00  0.00     0.066 A 
ATOM     23  C   UNK d   0     -37.615  13.977   2.288  0.00  0.00     0.062 C 
ATOM     24  C   UNK d   0     -38.352  16.435   1.631  0.00  0.00    -0.020 A 
ATOM     25  C   UNK d   0     -36.626  13.105   2.768  0.00  0.00     0.041 A 
ATOM     26  N   UNK d   0     -35.327  12.986   2.470  0.00  0.00    -0.355 N 
ATOM     27  C   UNK d   0     -36.980  12.164   3.760  0.00  0.00    -0.022 A 
ATOM     28  C   UNK d   0     -34.838  12.002   3.242  0.00  0.00     0.042 A 
ATOM     29  H   UNK d   0     -34.765  13.573   1.703  0.00  0.00     0.166 HD
ATOM     30  C   UNK d   0     -33.545  11.466   3.346  0.00  0.00     0.062 C 
ATOM     31  C   UNK d   0     -35.855  11.463   4.066  0.00  0.00    -0.013 A 
ATOM     32  C   UNK d   0     -32.335  12.142   3.322  0.00  0.00     0.066 A 
BRANCH   8  33
ATOM     33  C   UNK d   0     -28.748  12.931   3.476  0.00  0.00     0.151 C 
BRANCH  33  34
ATOM     34  C   UNK d   0     -28.129  13.483   2.257  0.00  0.00     0.143 C 
ATOM     35  O   UNK d   0     -28.763  13.547   1.194  0.00  0.00    -0.650 OA
BRANCH  34  36
ATOM     36  O   UNK d   0     -26.829  13.932   2.304  0.00  0.00    -0.776 OA
ATOM     37  H   UNK d   0     -26.145  13.663   1.584  0.00  0.00     0.167 HD
ENDBRANCH  34  36
ENDBRANCH  33  34
ENDBRANCH   8  33
BRANCH  31  38
ATOM     38  C   UNK d   0     -35.745  10.355   5.088  0.00  0.00     0.151 C 
BRANCH  38  39
ATOM     39  C   UNK d   0     -34.960   9.233   4.618  0.00  0.00     0.143 C 
ATOM     40  O   UNK d   0     -35.263   8.590   3.598  0.00  0.00    -0.650 OA
BRANCH  39  41
ATOM     41  O   UNK d   0     -33.821   8.849   5.325  0.00  0.00    -0.776 OA
ATOM     42  H   UNK d   0     -33.867   8.916   6.346  0.00  0.00     0.167 HD
ENDBRANCH  39  41
ENDBRANCH  38  39
ENDBRANCH  31  38
BRANCH  27  43
ATOM     43  C   UNK d   0     -38.318  11.913   4.409  0.00  0.00     0.052 C 
BRANCH  43  44
ATOM     44  C   UNK d   0     -38.905  13.132   5.043  0.00  0.00     0.115 C 
BRANCH  44  45
ATOM     45  C   UNK d   0     -40.244  12.742   5.555  0.00  0.00     0.139 C 
ATOM     46  O   UNK d   0     -40.884  11.861   4.928  0.00  0.00    -0.650 OA
BRANCH  45  47
ATOM     47  O   UNK d   0     -40.805  13.299   6.684  0.00  0.00    -0.776 OA
ATOM     48  H   UNK d   0     -41.685  12.955   7.101  0.00  0.00     0.167 HD
ENDBRANCH  45  47
ENDBRANCH  44  45
ENDBRANCH  43  44
ENDBRANCH  27  43
BRANCH  24  49
ATOM     49  C   UNK d   0     -39.808  16.339   1.434  0.00  0.00     0.052 C 
BRANCH  49  50
ATOM     50  C   UNK d   0     -40.530  16.582   2.734  0.00  0.00     0.115 C 
BRANCH  50  51
ATOM     51  C   UNK d   0     -41.126  15.425   3.390  0.00  0.00     0.139 C 
ATOM     52  O   UNK d   0     -41.677  15.495   4.514  0.00  0.00    -0.650 OA
BRANCH  51  53
ATOM     53  O   UNK d   0     -41.091  14.188   2.765  0.00  0.00    -0.776 OA
ATOM     54  H   UNK d   0     -41.960  13.782   2.466  0.00  0.00     0.167 HD
ENDBRANCH  51  53
ENDBRANCH  50  51
ENDBRANCH  49  50
ENDBRANCH  24  49
BRANCH  21  55
ATOM     55  C   UNK d   0     -38.094  18.898   1.204  0.00  0.00     0.151 C 
BRANCH  55  56
ATOM     56  C   UNK d   0     -38.325  19.717   2.404  0.00  0.00     0.143 C 
ATOM     57  O   UNK d   0     -37.401  20.278   3.026  0.00  0.00    -0.650 OA
BRANCH  56  58
ATOM     58  O   UNK d   0     -39.638  19.860   2.849  0.00  0.00    -0.776 OA
ATOM     59  H   UNK d   0     -40.349  19.922   2.098  0.00  0.00     0.167 HD
ENDBRANCH  56  58
ENDBRANCH  55  56
ENDBRANCH  21  55
BRANCH  18  60
ATOM     60  C   UNK d   0     -32.825  18.971   0.180  0.00  0.00     0.151 C 
BRANCH  60  61
ATOM     61  C   UNK d   0     -33.407  18.362  -1.026  0.00  0.00     0.143 C 
ATOM     62  O   UNK d   0     -33.156  17.250  -1.490  0.00  0.00    -0.650 OA
BRANCH  61  63
ATOM     63  O   UNK d   0     -34.355  19.163  -1.707  0.00  0.00    -0.776 OA
ATOM     64  H   UNK d   0     -35.336  19.091  -1.504  0.00  0.00     0.167 HD
ENDBRANCH  61  63
ENDBRANCH  60  61
ENDBRANCH  18  60
BRANCH  14  65
ATOM     65  C   UNK d   0     -30.268  17.526   0.942  0.00  0.00     0.052 C 
BRANCH  65  66
ATOM     66  C   UNK d   0     -29.912  16.700  -0.243  0.00  0.00     0.115 C 
BRANCH  66  67
ATOM     67  C   UNK d   0     -29.587  17.341  -1.486  0.00  0.00     0.139 C 
ATOM     68  O   UNK d   0     -29.765  18.610  -1.587  0.00  0.00    -0.650 OA
BRANCH  67  69
ATOM     69  O   UNK d   0     -29.084  16.750  -2.645  0.00  0.00    -0.776 OA
ATOM     70  H   UNK d   0     -28.078  16.531  -2.636  0.00  0.00     0.167 HD
ENDBRANCH  67  69
ENDBRANCH  66  67
ENDBRANCH  65  66
ENDBRANCH  14  65
ENDBRANCH   6   7
ENDBRANCH   5   6
ENDBRANCH   2   5
TORSDOF 28
ENDMDL
MODEL 14
REMARK VINA RESULT:      -6.8      6.541     11.805
REMARK  28 active torsions:
REMARK  status: ('A' for Active; 'I' for Inactive)
REMARK    1  A    between atoms: C_2  and  O_3 
REMARK    2  A    between atoms: C_2  and  C_4 
REMARK    3  A    between atoms: C_4  and  C_5 
REMARK    4  A    between atoms: C_5  and  C_6 
REMARK    5  A    between atoms: C_7  and  C_8 
REMARK    6  A    between atoms: C_8  and  C_9 
REMARK    7  A    between atoms: C_9  and  O_11 
REMARK    8  A    between atoms: C_28  and  C_29 
REMARK    9  A    between atoms: C_29  and  C_30 
REMARK   10  A    between atoms: C_30  and  O_32 
REMARK   11  A    between atoms: C_33  and  C_34 
REMARK   12  A    between atoms: C_34  and  C_35 
REMARK   13  A    between atoms: C_35  and  C_36 
REMARK   14  A    between atoms: C_36  and  O_38 
REMARK   15  A    between atoms: C_39  and  C_40 
REMARK   16  A    between atoms: C_40  and  C_41 
REMARK   17  A    between atoms: C_41  and  C_42 
REMARK   18  A    between atoms: C_42  and  O_44 
REMARK   19  A    between atoms: C_45  and  C_46 
REMARK   20  A    between atoms: C_46  and  C_47 
REMARK   21  A    between atoms: C_47  and  O_49 
REMARK   22  A    between atoms: C_50  and  C_51 
REMARK   23  A    between atoms: C_51  and  C_52 
REMARK   24  A    between atoms: C_52  and  O_54 
REMARK   25  A    between atoms: C_55  and  C_56 
REMARK   26  A    between atoms: C_56  and  C_57 
REMARK   27  A    between atoms: C_57  and  C_58 
REMARK   28  A    between atoms: C_58  and  O_60 
ROOT
ATOM      1  O   UNK d   0     -19.110  19.505  23.453  0.00  0.00    -0.650 OA
ATOM      2  C   UNK d   0     -18.486  18.494  23.059  0.00  0.00     0.139 C 
ENDROOT
BRANCH   2   3
ATOM      3  O   UNK d   0     -17.185  18.628  22.638  0.00  0.00    -0.776 OA
ATOM      4  H   UNK d   0     -16.861  18.184  21.776  0.00  0.00     0.167 HD
ENDBRANCH   2   3
BRANCH   2   5
ATOM      5  C   UNK d   0     -19.152  17.161  23.048  0.00  0.00     0.115 C 
BRANCH   5   6
ATOM      6  C   UNK d   0     -20.640  17.325  23.200  0.00  0.00     0.052 C 
BRANCH   6   7
ATOM      7  C   UNK d   0     -21.388  17.064  21.914  0.00  0.00    -0.020 A 
ATOM      8  C   UNK d   0     -21.855  15.922  21.480  0.00  0.00    -0.011 A 
ATOM      9  C   UNK d   0     -22.490  16.160  20.194  0.00  0.00     0.067 A 
ATOM     10  C   UNK d   0     -23.179  15.388  19.246  0.00  0.00     0.062 C 
ATOM     11  N   UNK d   0     -22.357  17.475  19.920  0.00  0.00    -0.248 NA
ATOM     12  C   UNK d   0     -23.968  15.851  18.188  0.00  0.00     0.041 A 
ATOM     13  N   UNK d   0     -23.774  16.854  17.311  0.00  0.00    -0.355 N 
ATOM     14  C   UNK d   0     -25.223  15.256  17.963  0.00  0.00    -0.022 A 
ATOM     15  C   UNK d   0     -24.877  16.916  16.541  0.00  0.00     0.042 A 
ATOM     16  H   UNK d   0     -22.868  17.493  17.225  0.00  0.00     0.166 HD
ATOM     17  C   UNK d   0     -25.198  17.777  15.472  0.00  0.00     0.062 C 
ATOM     18  C   UNK d   0     -25.808  15.930  16.920  0.00  0.00    -0.013 A 
ATOM     19  C   UNK d   0     -25.036  19.136  15.382  0.00  0.00     0.067 A 
ATOM     20  N   UNK d   0     -24.304  19.723  16.333  0.00  0.00    -0.248 NA
ATOM     21  C   UNK d   0     -25.487  20.184  14.481  0.00  0.00    -0.011 A 
ATOM     22  C   UNK d   0     -24.244  21.079  16.119  0.00  0.00     0.066 A 
ATOM     23  C   UNK d   0     -23.480  21.810  17.016  0.00  0.00     0.062 C 
ATOM     24  C   UNK d   0     -25.023  21.319  14.921  0.00  0.00    -0.020 A 
ATOM     25  C   UNK d   0     -22.685  21.324  18.066  0.00  0.00     0.041 A 
ATOM     26  N   UNK d   0     -22.884  20.337  18.947  0.00  0.00    -0.355 N 
ATOM     27  C   UNK d   0     -21.424  21.920  18.288  0.00  0.00    -0.022 A 
ATOM     28  C   UNK d   0     -21.789  20.279  19.722  0.00  0.00     0.042 A 
ATOM     29  H   UNK d   0     -23.800  19.703  19.038  0.00  0.00     0.166 HD
ATOM     30  C   UNK d   0     -21.461  19.434  20.793  0.00  0.00     0.062 C 
ATOM     31  C   UNK d   0     -20.850  21.264  19.333  0.00  0.00    -0.013 A 
ATOM     32  C   UNK d   0     -21.703  18.075  20.915  0.00  0.00     0.066 A 
BRANCH   8  33
ATOM     33  C   UNK d   0     -21.762  14.614  22.154  0.00  0.00     0.151 C 
BRANCH  33  34
ATOM     34  C   UNK d   0     -22.998  14.253  22.873  0.00  0.00     0.143 C 
ATOM     35  O   UNK d   0     -23.272  13.068  23.111  0.00  0.00    -0.650 OA
BRANCH  34  36
ATOM     36  O   UNK d   0     -23.856  15.247  23.281  0.00  0.00    -0.776 OA
ATOM     37  H   UNK d   0     -24.771  15.382  22.829  0.00  0.00     0.167 HD
ENDBRANCH  34  36
ENDBRANCH  33  34
ENDBRANCH   8  33
BRANCH  31  38
ATOM     38  C   UNK d   0     -19.487  21.544  19.922  0.00  0.00     0.151 C 
BRANCH  38  39
ATOM     39  C   UNK d   0     -18.429  20.807  19.264  0.00  0.00     0.143 C 
ATOM     40  O   UNK d   0     -17.942  21.168  18.179  0.00  0.00    -0.650 OA
BRANCH  39  41
ATOM     41  O   UNK d   0     -17.928  19.649  19.859  0.00  0.00    -0.776 OA
ATOM     42  H   UNK d   0     -18.385  19.339  20.722  0.00  0.00     0.167 HD
ENDBRANCH  39  41
ENDBRANCH  38  39
ENDBRANCH  31  38
BRANCH  27  43
ATOM     43  C   UNK d   0     -20.762  23.063  17.560  0.00  0.00     0.052 C 
BRANCH  43  44
ATOM     44  C   UNK d   0     -21.030  24.394  18.184  0.00  0.00     0.115 C 
BRANCH  44  45
ATOM     45  C   UNK d   0     -20.204  25.384  17.445  0.00  0.00     0.139 C 
ATOM     46  O   UNK d   0     -19.412  24.957  16.569  0.00  0.00    -0.650 OA
BRANCH  45  47
ATOM     47  O   UNK d   0     -20.277  26.740  17.676  0.00  0.00    -0.776 OA
ATOM     48  H   UNK d   0     -20.738  27.143  18.508  0.00  0.00     0.167 HD
ENDBRANCH  45  47
ENDBRANCH  44  45
ENDBRANCH  43  44
ENDBRANCH  27  43
BRANCH  24  49
ATOM     49  C   UNK d   0     -25.207  22.636  14.287  0.00  0.00     0.052 C 
BRANCH  49  50
ATOM     50  C   UNK d   0     -24.112  23.580  14.712  0.00  0.00     0.115 C 
BRANCH  50  51
ATOM     51  C   UNK d   0     -22.860  23.521  13.969  0.00  0.00     0.139 C 
ATOM     52  O   UNK d   0     -21.854  24.200  14.285  0.00  0.00    -0.650 OA
BRANCH  51  53
ATOM     53  O   UNK d   0     -22.755  22.691  12.865  0.00  0.00    -0.776 OA
ATOM     54  H   UNK d   0     -21.878  22.660  12.374  0.00  0.00     0.167 HD
ENDBRANCH  51  53
ENDBRANCH  50  51
ENDBRANCH  49  50
ENDBRANCH  24  49
BRANCH  21  55
ATOM     55  C   UNK d   0     -26.329  19.942  13.273  0.00  0.00     0.151 C 
BRANCH  55  56
ATOM     56  C   UNK d   0     -27.707  19.569  13.627  0.00  0.00     0.143 C 
ATOM     57  O   UNK d   0     -28.502  20.360  14.173  0.00  0.00    -0.650 OA
BRANCH  56  58
ATOM     58  O   UNK d   0     -28.125  18.272  13.333  0.00  0.00    -0.776 OA
ATOM     59  H   UNK d   0     -28.218  18.063  12.322  0.00  0.00     0.167 HD
ENDBRANCH  56  58
ENDBRANCH  55  56
ENDBRANCH  21  55
BRANCH  18  60
ATOM     60  C   UNK d   0     -27.171  15.625  16.350  0.00  0.00     0.151 C 
BRANCH  60  61
ATOM     61  C   UNK d   0     -28.055  16.702  16.821  0.00  0.00     0.143 C 
ATOM     62  O   UNK d   0     -28.683  17.503  16.128  0.00  0.00    -0.650 OA
BRANCH  61  63
ATOM     63  O   UNK d   0     -28.181  16.807  18.227  0.00  0.00    -0.776 OA
ATOM     64  H   UNK d   0     -27.418  17.134  18.793  0.00  0.00     0.167 HD
ENDBRANCH  61  63
ENDBRANCH  60  61
ENDBRANCH  18  60
BRANCH  14  65
ATOM     65  C   UNK d   0     -25.861  14.048  18.588  0.00  0.00     0.052 C 
BRANCH  65  66
ATOM     66  C   UNK d   0     -26.544  14.351  19.874  0.00  0.00     0.115 C 
BRANCH  66  67
ATOM     67  C   UNK d   0     -26.168  13.642  21.064  0.00  0.00     0.139 C 
ATOM     68  O   UNK d   0     -26.461  14.158  22.205  0.00  0.00    -0.650 OA
BRANCH  67  69
ATOM     69  O   UNK d   0     -25.501  12.421  21.154  0.00  0.00    -0.776 OA
ATOM     70  H   UNK d   0     -26.089  11.603  21.371  0.00  0.00     0.167 HD
ENDBRANCH  67  69
ENDBRANCH  66  67
ENDBRANCH  65  66
ENDBRANCH  14  65
ENDBRANCH   6   7
ENDBRANCH   5   6
ENDBRANCH   2   5
TORSDOF 28
ENDMDL
MODEL 15
REMARK VINA RESULT:      -6.8      3.555      9.787
REMARK  28 active torsions:
REMARK  status: ('A' for Active; 'I' for Inactive)
REMARK    1  A    between atoms: C_2  and  O_3 
REMARK    2  A    between atoms: C_2  and  C_4 
REMARK    3  A    between atoms: C_4  and  C_5 
REMARK    4  A    between atoms: C_5  and  C_6 
REMARK    5  A    between atoms: C_7  and  C_8 
REMARK    6  A    between atoms: C_8  and  C_9 
REMARK    7  A    between atoms: C_9  and  O_11 
REMARK    8  A    between atoms: C_28  and  C_29 
REMARK    9  A    between atoms: C_29  and  C_30 
REMARK   10  A    between atoms: C_30  and  O_32 
REMARK   11  A    between atoms: C_33  and  C_34 
REMARK   12  A    between atoms: C_34  and  C_35 
REMARK   13  A    between atoms: C_35  and  C_36 
REMARK   14  A    between atoms: C_36  and  O_38 
REMARK   15  A    between atoms: C_39  and  C_40 
REMARK   16  A    between atoms: C_40  and  C_41 
REMARK   17  A    between atoms: C_41  and  C_42 
REMARK   18  A    between atoms: C_42  and  O_44 
REMARK   19  A    between atoms: C_45  and  C_46 
REMARK   20  A    between atoms: C_46  and  C_47 
REMARK   21  A    between atoms: C_47  and  O_49 
REMARK   22  A    between atoms: C_50  and  C_51 
REMARK   23  A    between atoms: C_51  and  C_52 
REMARK   24  A    between atoms: C_52  and  O_54 
REMARK   25  A    between atoms: C_55  and  C_56 
REMARK   26  A    between atoms: C_56  and  C_57 
REMARK   27  A    between atoms: C_57  and  C_58 
REMARK   28  A    between atoms: C_58  and  O_60 
ROOT
ATOM      1  O   UNK d   0     -22.807  15.004  18.040  0.00  0.00    -0.650 OA
ATOM      2  C   UNK d   0     -23.043  16.202  17.768  0.00  0.00     0.139 C 
ENDROOT
BRANCH   2   3
ATOM      3  O   UNK d   0     -23.549  16.525  16.532  0.00  0.00    -0.776 OA
ATOM      4  H   UNK d   0     -23.856  17.477  16.320  0.00  0.00     0.167 HD
ENDBRANCH   2   3
BRANCH   2   5
ATOM      5  C   UNK d   0     -22.777  17.265  18.778  0.00  0.00     0.115 C 
BRANCH   5   6
ATOM      6  C   UNK d   0     -23.930  18.229  18.832  0.00  0.00     0.052 C 
BRANCH   6   7
ATOM      7  C   UNK d   0     -23.539  19.628  18.418  0.00  0.00    -0.020 A 
ATOM      8  C   UNK d   0     -23.906  20.274  17.342  0.00  0.00    -0.011 A 
ATOM      9  C   UNK d   0     -23.272  21.582  17.370  0.00  0.00     0.067 A 
ATOM     10  C   UNK d   0     -23.269  22.723  16.554  0.00  0.00     0.062 C 
ATOM     11  N   UNK d   0     -22.531  21.643  18.496  0.00  0.00    -0.248 NA
ATOM     12  C   UNK d   0     -22.812  24.003  16.888  0.00  0.00     0.041 A 
ATOM     13  N   UNK d   0     -21.710  24.405  17.549  0.00  0.00    -0.355 N 
ATOM     14  C   UNK d   0     -23.606  25.117  16.560  0.00  0.00    -0.022 A 
ATOM     15  C   UNK d   0     -21.788  25.745  17.656  0.00  0.00     0.042 A 
ATOM     16  H   UNK d   0     -20.883  23.757  17.915  0.00  0.00     0.166 HD
ATOM     17  C   UNK d   0     -20.904  26.667  18.252  0.00  0.00     0.062 C 
ATOM     18  C   UNK d   0     -22.964  26.227  17.049  0.00  0.00    -0.013 A 
ATOM     19  C   UNK d   0     -20.264  26.589  19.463  0.00  0.00     0.067 A 
ATOM     20  N   UNK d   0     -20.308  25.414  20.095  0.00  0.00    -0.248 NA
ATOM     21  C   UNK d   0     -19.513  27.502  20.307  0.00  0.00    -0.011 A 
ATOM     22  C   UNK d   0     -19.641  25.492  21.293  0.00  0.00     0.066 A 
ATOM     23  C   UNK d   0     -19.576  24.326  22.040  0.00  0.00     0.062 C 
ATOM     24  C   UNK d   0     -19.155  26.855  21.379  0.00  0.00    -0.020 A 
ATOM     25  C   UNK d   0     -20.031  23.047  21.681  0.00  0.00     0.041 A 
ATOM     26  N   UNK d   0     -21.134  22.646  21.037  0.00  0.00    -0.355 N 
ATOM     27  C   UNK d   0     -19.231  21.930  22.006  0.00  0.00    -0.022 A 
ATOM     28  C   UNK d   0     -21.062  21.310  20.937  0.00  0.00     0.042 A 
ATOM     29  H   UNK d   0     -21.969  23.298  20.680  0.00  0.00     0.166 HD
ATOM     30  C   UNK d   0     -21.938  20.380  20.355  0.00  0.00     0.062 C 
ATOM     31  C   UNK d   0     -19.876  20.827  21.538  0.00  0.00    -0.013 A 
ATOM     32  C   UNK d   0     -22.649  20.499  19.171  0.00  0.00     0.066 A 
BRANCH   8  33
ATOM     33  C   UNK d   0     -24.798  19.783  16.276  0.00  0.00     0.151 C 
BRANCH  33  34
ATOM     34  C   UNK d   0     -24.134  19.715  14.962  0.00  0.00     0.143 C 
ATOM     35  O   UNK d   0     -24.497  20.444  14.027  0.00  0.00    -0.650 OA
BRANCH  34  36
ATOM     36  O   UNK d   0     -23.098  18.830  14.773  0.00  0.00    -0.776 OA
ATOM     37  H   UNK d   0     -22.264  19.092  14.230  0.00  0.00     0.167 HD
ENDBRANCH  34  36
ENDBRANCH  33  34
ENDBRANCH   8  33
BRANCH  31  38
ATOM     38  C   UNK d   0     -19.390  19.400  21.642  0.00  0.00     0.151 C 
BRANCH  38  39
ATOM     39  C   UNK d   0     -18.473  19.040  20.582  0.00  0.00     0.143 C 
ATOM     40  O   UNK d   0     -18.648  19.393  19.402  0.00  0.00    -0.650 OA
BRANCH  39  41
ATOM     41  O   UNK d   0     -17.349  18.270  20.879  0.00  0.00    -0.776 OA
ATOM     42  H   UNK d   0     -17.170  17.462  20.274  0.00  0.00     0.167 HD
ENDBRANCH  39  41
ENDBRANCH  38  39
ENDBRANCH  31  38
BRANCH  27  43
ATOM     43  C   UNK d   0     -17.909  21.876  22.730  0.00  0.00     0.052 C 
BRANCH  43  44
ATOM     44  C   UNK d   0     -18.048  21.622  24.196  0.00  0.00     0.115 C 
BRANCH  44  45
ATOM     45  C   UNK d   0     -17.924  22.942  24.869  0.00  0.00     0.139 C 
ATOM     46  O   UNK d   0     -16.804  23.510  24.855  0.00  0.00    -0.650 OA
BRANCH  45  47
ATOM     47  O   UNK d   0     -18.982  23.563  25.497  0.00  0.00    -0.776 OA
ATOM     48  H   UNK d   0     -19.404  24.439  25.149  0.00  0.00     0.167 HD
ENDBRANCH  45  47
ENDBRANCH  44  45
ENDBRANCH  43  44
ENDBRANCH  27  43
BRANCH  24  49
ATOM     49  C   UNK d   0     -18.343  27.390  22.486  0.00  0.00     0.052 C 
BRANCH  49  50
ATOM     50  C   UNK d   0     -19.226  27.779  23.644  0.00  0.00     0.115 C 
BRANCH  50  51
ATOM     51  C   UNK d   0     -19.382  26.805  24.716  0.00  0.00     0.139 C 
ATOM     52  O   UNK d   0     -20.499  26.351  25.059  0.00  0.00    -0.650 OA
BRANCH  51  53
ATOM     53  O   UNK d   0     -18.265  26.350  25.399  0.00  0.00    -0.776 OA
ATOM     54  H   UNK d   0     -18.342  25.496  25.922  0.00  0.00     0.167 HD
ENDBRANCH  51  53
ENDBRANCH  50  51
ENDBRANCH  49  50
ENDBRANCH  24  49
BRANCH  21  55
ATOM     55  C   UNK d   0     -19.227  28.924  19.954  0.00  0.00     0.151 C 
BRANCH  55  56
ATOM     56  C   UNK d   0     -20.297  29.829  20.401  0.00  0.00     0.143 C 
ATOM     57  O   UNK d   0     -21.329  29.424  20.971  0.00  0.00    -0.650 OA
BRANCH  56  58
ATOM     58  O   UNK d   0     -20.133  31.193  20.168  0.00  0.00    -0.776 OA
ATOM     59  H   UNK d   0     -19.597  31.429  19.314  0.00  0.00     0.167 HD
ENDBRANCH  56  58
ENDBRANCH  55  56
ENDBRANCH  21  55
BRANCH  18  60
ATOM     60  C   UNK d   0     -23.471  27.643  16.927  0.00  0.00     0.151 C 
BRANCH  60  61
ATOM     61  C   UNK d   0     -23.143  28.073  15.559  0.00  0.00     0.143 C 
ATOM     62  O   UNK d   0     -23.738  28.912  14.883  0.00  0.00    -0.650 OA
BRANCH  61  63
ATOM     63  O   UNK d   0     -22.016  27.440  14.982  0.00  0.00    -0.776 OA
ATOM     64  H   UNK d   0     -22.092  26.933  14.118  0.00  0.00     0.167 HD
ENDBRANCH  61  63
ENDBRANCH  60  61
ENDBRANCH  18  60
BRANCH  14  65
ATOM     65  C   UNK d   0     -24.863  25.219  15.744  0.00  0.00     0.052 C 
BRANCH  65  66
ATOM     66  C   UNK d   0     -24.630  25.015  14.289  0.00  0.00     0.115 C 
BRANCH  66  67
ATOM     67  C   UNK d   0     -25.208  23.879  13.628  0.00  0.00     0.139 C 
ATOM     68  O   UNK d   0     -26.378  23.487  13.992  0.00  0.00    -0.650 OA
BRANCH  67  69
ATOM     69  O   UNK d   0     -24.651  23.112  12.605  0.00  0.00    -0.776 OA
ATOM     70  H   UNK d   0     -23.638  23.227  12.460  0.00  0.00     0.167 HD
ENDBRANCH  67  69
ENDBRANCH  66  67
ENDBRANCH  65  66
ENDBRANCH  14  65
ENDBRANCH   6   7
ENDBRANCH   5   6
ENDBRANCH   2   5
TORSDOF 28
ENDMDL
MODEL 16
REMARK VINA RESULT:      -6.8      5.388     10.203
REMARK  28 active torsions:
REMARK  status: ('A' for Active; 'I' for Inactive)
REMARK    1  A    between atoms: C_2  and  O_3 
REMARK    2  A    between atoms: C_2  and  C_4 
REMARK    3  A    between atoms: C_4  and  C_5 
REMARK    4  A    between atoms: C_5  and  C_6 
REMARK    5  A    between atoms: C_7  and  C_8 
REMARK    6  A    between atoms: C_8  and  C_9 
REMARK    7  A    between atoms: C_9  and  O_11 
REMARK    8  A    between atoms: C_28  and  C_29 
REMARK    9  A    between atoms: C_29  and  C_30 
REMARK   10  A    between atoms: C_30  and  O_32 
REMARK   11  A    between atoms: C_33  and  C_34 
REMARK   12  A    between atoms: C_34  and  C_35 
REMARK   13  A    between atoms: C_35  and  C_36 
REMARK   14  A    between atoms: C_36  and  O_38 
REMARK   15  A    between atoms: C_39  and  C_40 
REMARK   16  A    between atoms: C_40  and  C_41 
REMARK   17  A    between atoms: C_41  and  C_42 
REMARK   18  A    between atoms: C_42  and  O_44 
REMARK   19  A    between atoms: C_45  and  C_46 
REMARK   20  A    between atoms: C_46  and  C_47 
REMARK   21  A    between atoms: C_47  and  O_49 
REMARK   22  A    between atoms: C_50  and  C_51 
REMARK   23  A    between atoms: C_51  and  C_52 
REMARK   24  A    between atoms: C_52  and  O_54 
REMARK   25  A    between atoms: C_55  and  C_56 
REMARK   26  A    between atoms: C_56  and  C_57 
REMARK   27  A    between atoms: C_57  and  C_58 
REMARK   28  A    between atoms: C_58  and  O_60 
ROOT
ATOM      1  O   UNK d   0     -19.546  26.714  24.284  0.00  0.00    -0.650 OA
ATOM      2  C   UNK d   0     -19.187  25.663  23.707  0.00  0.00     0.139 C 
ENDROOT
BRANCH   2   3
ATOM      3  O   UNK d   0     -17.909  25.196  23.893  0.00  0.00    -0.776 OA
ATOM      4  H   UNK d   0     -17.623  24.780  24.782  0.00  0.00     0.167 HD
ENDBRANCH   2   3
BRANCH   2   5
ATOM      5  C   UNK d   0     -20.141  24.930  22.827  0.00  0.00     0.115 C 
BRANCH   5   6
ATOM      6  C   UNK d   0     -19.448  24.493  21.565  0.00  0.00     0.052 C 
BRANCH   6   7
ATOM      7  C   UNK d   0     -19.845  23.101  21.136  0.00  0.00    -0.020 A 
ATOM      8  C   UNK d   0     -19.309  21.967  21.511  0.00  0.00    -0.011 A 
ATOM      9  C   UNK d   0     -20.015  20.895  20.832  0.00  0.00     0.067 A 
ATOM     10  C   UNK d   0     -19.951  19.493  20.812  0.00  0.00     0.062 C 
ATOM     11  N   UNK d   0     -20.962  21.466  20.058  0.00  0.00    -0.248 NA
ATOM     12  C   UNK d   0     -20.906  18.607  20.301  0.00  0.00     0.041 A 
ATOM     13  N   UNK d   0     -21.633  18.645  19.168  0.00  0.00    -0.355 N 
ATOM     14  C   UNK d   0     -21.270  17.484  21.065  0.00  0.00    -0.022 A 
ATOM     15  C   UNK d   0     -22.454  17.578  19.197  0.00  0.00     0.042 A 
ATOM     16  H   UNK d   0     -21.553  19.399  18.355  0.00  0.00     0.166 HD
ATOM     17  C   UNK d   0     -23.417  17.141  18.266  0.00  0.00     0.062 C 
ATOM     18  C   UNK d   0     -22.256  16.827  20.372  0.00  0.00    -0.013 A 
ATOM     19  C   UNK d   0     -24.363  17.874  17.595  0.00  0.00     0.067 A 
ATOM     20  N   UNK d   0     -24.257  19.203  17.662  0.00  0.00    -0.248 NA
ATOM     21  C   UNK d   0     -25.536  17.578  16.789  0.00  0.00    -0.011 A 
ATOM     22  C   UNK d   0     -25.276  19.798  16.960  0.00  0.00     0.066 A 
ATOM     23  C   UNK d   0     -25.266  21.185  16.914  0.00  0.00     0.062 C 
ATOM     24  C   UNK d   0     -26.068  18.708  16.424  0.00  0.00    -0.020 A 
ATOM     25  C   UNK d   0     -24.290  22.055  17.423  0.00  0.00     0.041 A 
ATOM     26  N   UNK d   0     -23.579  22.026  18.557  0.00  0.00    -0.355 N 
ATOM     27  C   UNK d   0     -23.922  23.180  16.654  0.00  0.00    -0.022 A 
ATOM     28  C   UNK d   0     -22.765  23.094  18.534  0.00  0.00     0.042 A 
ATOM     29  H   UNK d   0     -23.668  21.273  19.378  0.00  0.00     0.166 HD
ATOM     30  C   UNK d   0     -21.809  23.545  19.458  0.00  0.00     0.062 C 
ATOM     31  C   UNK d   0     -22.957  23.843  17.349  0.00  0.00    -0.013 A 
ATOM     32  C   UNK d   0     -20.912  22.791  20.197  0.00  0.00     0.066 A 
BRANCH   8  33
ATOM     33  C   UNK d   0     -18.185  21.787  22.449  0.00  0.00     0.151 C 
BRANCH  33  34
ATOM     34  C   UNK d   0     -18.622  21.709  23.855  0.00  0.00     0.143 C 
ATOM     35  O   UNK d   0     -18.080  22.398  24.730  0.00  0.00    -0.650 OA
BRANCH  34  36
ATOM     36  O   UNK d   0     -19.646  20.856  24.197  0.00  0.00    -0.776 OA
ATOM     37  H   UNK d   0     -19.747  19.935  23.749  0.00  0.00     0.167 HD
ENDBRANCH  34  36
ENDBRANCH  33  34
ENDBRANCH   8  33
BRANCH  31  38
ATOM     38  C   UNK d   0     -22.249  25.103  16.910  0.00  0.00     0.151 C 
BRANCH  38  39
ATOM     39  C   UNK d   0     -20.992  24.838  16.244  0.00  0.00     0.143 C 
ATOM     40  O   UNK d   0     -20.921  24.169  15.199  0.00  0.00    -0.650 OA
BRANCH  39  41
ATOM     41  O   UNK d   0     -19.810  25.347  16.782  0.00  0.00    -0.776 OA
ATOM     42  H   UNK d   0     -19.586  25.074  17.744  0.00  0.00     0.167 HD
ENDBRANCH  39  41
ENDBRANCH  38  39
ENDBRANCH  31  38
BRANCH  27  43
ATOM     43  C   UNK d   0     -24.444  23.638  15.315  0.00  0.00     0.052 C 
BRANCH  43  44
ATOM     44  C   UNK d   0     -24.579  22.529  14.323  0.00  0.00     0.115 C 
BRANCH  44  45
ATOM     45  C   UNK d   0     -23.200  22.157  13.912  0.00  0.00     0.139 C 
ATOM     46  O   UNK d   0     -22.666  21.162  14.463  0.00  0.00    -0.650 OA
BRANCH  45  47
ATOM     47  O   UNK d   0     -22.492  22.850  12.954  0.00  0.00    -0.776 OA
ATOM     48  H   UNK d   0     -22.949  23.379  12.194  0.00  0.00     0.167 HD
ENDBRANCH  45  47
ENDBRANCH  44  45
ENDBRANCH  43  44
ENDBRANCH  27  43
BRANCH  24  49
ATOM     49  C   UNK d   0     -27.252  18.873  15.564  0.00  0.00     0.052 C 
BRANCH  49  50
ATOM     50  C   UNK d   0     -26.834  19.121  14.137  0.00  0.00     0.115 C 
BRANCH  50  51
ATOM     51  C   UNK d   0     -27.796  19.783  13.268  0.00  0.00     0.139 C 
ATOM     52  O   UNK d   0     -28.735  19.170  12.706  0.00  0.00    -0.650 OA
BRANCH  51  53
ATOM     53  O   UNK d   0     -27.688  21.146  13.036  0.00  0.00    -0.776 OA
ATOM     54  H   UNK d   0     -27.515  21.456  12.096  0.00  0.00     0.167 HD
ENDBRANCH  51  53
ENDBRANCH  50  51
ENDBRANCH  49  50
ENDBRANCH  24  49
BRANCH  21  55
ATOM     55  C   UNK d   0     -25.999  16.196  16.465  0.00  0.00     0.151 C 
BRANCH  55  56
ATOM     56  C   UNK d   0     -25.644  15.804  15.092  0.00  0.00     0.143 C 
ATOM     57  O   UNK d   0     -26.496  15.629  14.199  0.00  0.00    -0.650 OA
BRANCH  56  58
ATOM     58  O   UNK d   0     -24.294  15.626  14.797  0.00  0.00    -0.776 OA
ATOM     59  H   UNK d   0     -23.953  14.651  14.884  0.00  0.00     0.167 HD
ENDBRANCH  56  58
ENDBRANCH  55  56
ENDBRANCH  21  55
BRANCH  18  60
ATOM     60  C   UNK d   0     -22.944  15.566  20.833  0.00  0.00     0.151 C 
BRANCH  60  61
ATOM     61  C   UNK d   0     -24.153  16.004  21.548  0.00  0.00     0.143 C 
ATOM     62  O   UNK d   0     -24.213  16.486  22.679  0.00  0.00    -0.650 OA
BRANCH  61  63
ATOM     63  O   UNK d   0     -25.366  15.843  20.835  0.00  0.00    -0.776 OA
ATOM     64  H   UNK d   0     -26.065  16.564  20.833  0.00  0.00     0.167 HD
ENDBRANCH  61  63
ENDBRANCH  60  61
ENDBRANCH  18  60
BRANCH  14  65
ATOM     65  C   UNK d   0     -20.695  16.936  22.340  0.00  0.00     0.052 C 
BRANCH  65  66
ATOM     66  C   UNK d   0     -19.209  16.864  22.324  0.00  0.00     0.115 C 
BRANCH  66  67
ATOM     67  C   UNK d   0     -18.444  17.743  23.162  0.00  0.00     0.139 C 
ATOM     68  O   UNK d   0     -18.891  18.012  24.338  0.00  0.00    -0.650 OA
BRANCH  67  69
ATOM     69  O   UNK d   0     -17.236  18.371  22.863  0.00  0.00    -0.776 OA
ATOM     70  H   UNK d   0     -17.128  18.694  21.891  0.00  0.00     0.167 HD
ENDBRANCH  67  69
ENDBRANCH  66  67
ENDBRANCH  65  66
ENDBRANCH  14  65
ENDBRANCH   6   7
ENDBRANCH   5   6
ENDBRANCH   2   5
TORSDOF 28
ENDMDL
MODEL 17
REMARK VINA RESULT:      -6.8      2.296      7.972
REMARK  28 active torsions:
REMARK  status: ('A' for Active; 'I' for Inactive)
REMARK    1  A    between atoms: C_2  and  O_3 
REMARK    2  A    between atoms: C_2  and  C_4 
REMARK    3  A    between atoms: C_4  and  C_5 
REMARK    4  A    between atoms: C_5  and  C_6 
REMARK    5  A    between atoms: C_7  and  C_8 
REMARK    6  A    between atoms: C_8  and  C_9 
REMARK    7  A    between atoms: C_9  and  O_11 
REMARK    8  A    between atoms: C_28  and  C_29 
REMARK    9  A    between atoms: C_29  and  C_30 
REMARK   10  A    between atoms: C_30  and  O_32 
REMARK   11  A    between atoms: C_33  and  C_34 
REMARK   12  A    between atoms: C_34  and  C_35 
REMARK   13  A    between atoms: C_35  and  C_36 
REMARK   14  A    between atoms: C_36  and  O_38 
REMARK   15  A    between atoms: C_39  and  C_40 
REMARK   16  A    between atoms: C_40  and  C_41 
REMARK   17  A    between atoms: C_41  and  C_42 
REMARK   18  A    between atoms: C_42  and  O_44 
REMARK   19  A    between atoms: C_45  and  C_46 
REMARK   20  A    between atoms: C_46  and  C_47 
REMARK   21  A    between atoms: C_47  and  O_49 
REMARK   22  A    between atoms: C_50  and  C_51 
REMARK   23  A    between atoms: C_51  and  C_52 
REMARK   24  A    between atoms: C_52  and  O_54 
REMARK   25  A    between atoms: C_55  and  C_56 
REMARK   26  A    between atoms: C_56  and  C_57 
REMARK   27  A    between atoms: C_57  and  C_58 
REMARK   28  A    between atoms: C_58  and  O_60 
ROOT
ATOM      1  O   UNK d   0     -24.273  33.781  14.423  0.00  0.00    -0.650 OA
ATOM      2  C   UNK d   0     -24.334  33.468  15.633  0.00  0.00     0.139 C 
ENDROOT
BRANCH   2   3
ATOM      3  O   UNK d   0     -24.537  34.449  16.573  0.00  0.00    -0.776 OA
ATOM      4  H   UNK d   0     -24.279  35.420  16.386  0.00  0.00     0.167 HD
ENDBRANCH   2   3
BRANCH   2   5
ATOM      5  C   UNK d   0     -24.186  32.043  16.045  0.00  0.00     0.115 C 
BRANCH   5   6
ATOM      6  C   UNK d   0     -24.623  31.870  17.475  0.00  0.00     0.052 C 
BRANCH   6   7
ATOM      7  C   UNK d   0     -23.572  31.201  18.327  0.00  0.00    -0.020 A 
ATOM      8  C   UNK d   0     -22.739  31.770  19.161  0.00  0.00    -0.011 A 
ATOM      9  C   UNK d   0     -21.912  30.728  19.745  0.00  0.00     0.067 A 
ATOM     10  C   UNK d   0     -20.878  30.667  20.692  0.00  0.00     0.062 C 
ATOM     11  N   UNK d   0     -22.305  29.555  19.205  0.00  0.00    -0.248 NA
ATOM     12  C   UNK d   0     -20.386  29.527  21.337  0.00  0.00     0.041 A 
ATOM     13  N   UNK d   0     -20.105  28.296  20.871  0.00  0.00    -0.355 N 
ATOM     14  C   UNK d   0     -20.169  29.573  22.727  0.00  0.00    -0.022 A 
ATOM     15  C   UNK d   0     -19.723  27.556  21.929  0.00  0.00     0.042 A 
ATOM     16  H   UNK d   0     -20.157  27.961  19.811  0.00  0.00     0.166 HD
ATOM     17  C   UNK d   0     -19.321  26.208  22.004  0.00  0.00     0.062 C 
ATOM     18  C   UNK d   0     -19.751  28.323  23.110  0.00  0.00    -0.013 A 
ATOM     19  C   UNK d   0     -19.885  25.106  21.414  0.00  0.00     0.067 A 
ATOM     20  N   UNK d   0     -20.820  25.328  20.487  0.00  0.00    -0.248 NA
ATOM     21  C   UNK d   0     -19.744  23.665  21.542  0.00  0.00    -0.011 A 
ATOM     22  C   UNK d   0     -21.301  24.137  20.000  0.00  0.00     0.066 A 
ATOM     23  C   UNK d   0     -22.256  24.222  18.997  0.00  0.00     0.062 C 
ATOM     24  C   UNK d   0     -20.578  23.104  20.715  0.00  0.00    -0.020 A 
ATOM     25  C   UNK d   0     -22.727  25.376  18.353  0.00  0.00     0.041 A 
ATOM     26  N   UNK d   0     -23.021  26.596  18.820  0.00  0.00    -0.355 N 
ATOM     27  C   UNK d   0     -22.941  25.331  16.958  0.00  0.00    -0.022 A 
ATOM     28  C   UNK d   0     -23.410  27.333  17.768  0.00  0.00     0.042 A 
ATOM     29  H   UNK d   0     -22.978  26.927  19.886  0.00  0.00     0.166 HD
ATOM     30  C   UNK d   0     -23.822  28.672  17.680  0.00  0.00     0.062 C 
ATOM     31  C   UNK d   0     -23.372  26.565  16.579  0.00  0.00    -0.013 A 
ATOM     32  C   UNK d   0     -23.301  29.771  18.345  0.00  0.00     0.066 A 
BRANCH   8  33
ATOM     33  C   UNK d   0     -22.637  33.209  19.465  0.00  0.00     0.151 C 
BRANCH  33  34
ATOM     34  C   UNK d   0     -21.643  33.901  18.625  0.00  0.00     0.143 C 
ATOM     35  O   UNK d   0     -20.465  33.518  18.587  0.00  0.00    -0.650 OA
BRANCH  34  36
ATOM     36  O   UNK d   0     -22.030  34.987  17.875  0.00  0.00    -0.776 OA
ATOM     37  H   UNK d   0     -22.951  35.018  17.416  0.00  0.00     0.167 HD
ENDBRANCH  34  36
ENDBRANCH  33  34
ENDBRANCH   8  33
BRANCH  31  38
ATOM     38  C   UNK d   0     -23.715  26.996  15.172  0.00  0.00     0.151 C 
BRANCH  38  39
ATOM     39  C   UNK d   0     -25.119  26.831  14.861  0.00  0.00     0.143 C 
ATOM     40  O   UNK d   0     -25.887  26.169  15.582  0.00  0.00    -0.650 OA
BRANCH  39  41
ATOM     41  O   UNK d   0     -25.643  27.429  13.716  0.00  0.00    -0.776 OA
ATOM     42  H   UNK d   0     -26.164  26.823  13.075  0.00  0.00     0.167 HD
ENDBRANCH  39  41
ENDBRANCH  38  39
ENDBRANCH  31  38
BRANCH  27  43
ATOM     43  C   UNK d   0     -22.755  24.184  15.997  0.00  0.00     0.052 C 
BRANCH  43  44
ATOM     44  C   UNK d   0     -21.566  24.345  15.107  0.00  0.00     0.115 C 
BRANCH  44  45
ATOM     45  C   UNK d   0     -20.419  23.717  15.812  0.00  0.00     0.139 C 
ATOM     46  O   UNK d   0     -20.385  22.464  15.887  0.00  0.00    -0.650 OA
BRANCH  45  47
ATOM     47  O   UNK d   0     -19.398  24.449  16.378  0.00  0.00    -0.776 OA
ATOM     48  H   UNK d   0     -18.894  25.194  15.870  0.00  0.00     0.167 HD
ENDBRANCH  45  47
ENDBRANCH  44  45
ENDBRANCH  43  44
ENDBRANCH  27  43
BRANCH  24  49
ATOM     49  C   UNK d   0     -20.739  21.657  20.492  0.00  0.00     0.052 C 
BRANCH  49  50
ATOM     50  C   UNK d   0     -20.276  21.286  19.106  0.00  0.00     0.115 C 
BRANCH  50  51
ATOM     51  C   UNK d   0     -18.841  21.307  18.857  0.00  0.00     0.139 C 
ATOM     52  O   UNK d   0     -17.999  20.959  19.718  0.00  0.00    -0.650 OA
BRANCH  51  53
ATOM     53  O   UNK d   0     -18.364  21.730  17.625  0.00  0.00    -0.776 OA
ATOM     54  H   UNK d   0     -17.416  21.506  17.380  0.00  0.00     0.167 HD
ENDBRANCH  51  53
ENDBRANCH  50  51
ENDBRANCH  49  50
ENDBRANCH  24  49
BRANCH  21  55
ATOM     55  C   UNK d   0     -18.787  22.999  22.475  0.00  0.00     0.151 C 
BRANCH  55  56
ATOM     56  C   UNK d   0     -19.324  22.905  23.841  0.00  0.00     0.143 C 
ATOM     57  O   UNK d   0     -20.009  21.939  24.232  0.00  0.00    -0.650 OA
BRANCH  56  58
ATOM     58  O   UNK d   0     -19.044  23.949  24.722  0.00  0.00    -0.776 OA
ATOM     59  H   UNK d   0     -18.164  24.459  24.529  0.00  0.00     0.167 HD
ENDBRANCH  56  58
ENDBRANCH  55  56
ENDBRANCH  21  55
BRANCH  18  60
ATOM     60  C   UNK d   0     -19.412  27.921  24.524  0.00  0.00     0.151 C 
BRANCH  60  61
ATOM     61  C   UNK d   0     -20.636  27.325  25.080  0.00  0.00     0.143 C 
ATOM     62  O   UNK d   0     -20.997  26.151  24.992  0.00  0.00    -0.650 OA
BRANCH  61  63
ATOM     63  O   UNK d   0     -21.474  28.220  25.788  0.00  0.00    -0.776 OA
ATOM     64  H   UNK d   0     -22.212  27.882  26.379  0.00  0.00     0.167 HD
ENDBRANCH  61  63
ENDBRANCH  60  61
ENDBRANCH  18  60
BRANCH  14  65
ATOM     65  C   UNK d   0     -20.231  30.722  23.692  0.00  0.00     0.052 C 
BRANCH  65  66
ATOM     66  C   UNK d   0     -18.987  31.538  23.706  0.00  0.00     0.115 C 
BRANCH  66  67
ATOM     67  C   UNK d   0     -18.592  32.212  24.911  0.00  0.00     0.139 C 
ATOM     68  O   UNK d   0     -17.892  33.286  24.812  0.00  0.00    -0.650 OA
BRANCH  67  69
ATOM     69  O   UNK d   0     -18.875  31.845  26.226  0.00  0.00    -0.776 OA
ATOM     70  H   UNK d   0     -18.506  30.931  26.525  0.00  0.00     0.167 HD
ENDBRANCH  67  69
ENDBRANCH  66  67
ENDBRANCH  65  66
ENDBRANCH  14  65
ENDBRANCH   6   7
ENDBRANCH   5   6
ENDBRANCH   2   5
TORSDOF 28
ENDMDL
MODEL 18
REMARK VINA RESULT:      -6.8      1.607      7.131
REMARK  28 active torsions:
REMARK  status: ('A' for Active; 'I' for Inactive)
REMARK    1  A    between atoms: C_2  and  O_3 
REMARK    2  A    between atoms: C_2  and  C_4 
REMARK    3  A    between atoms: C_4  and  C_5 
REMARK    4  A    between atoms: C_5  and  C_6 
REMARK    5  A    between atoms: C_7  and  C_8 
REMARK    6  A    between atoms: C_8  and  C_9 
REMARK    7  A    between atoms: C_9  and  O_11 
REMARK    8  A    between atoms: C_28  and  C_29 
REMARK    9  A    between atoms: C_29  and  C_30 
REMARK   10  A    between atoms: C_30  and  O_32 
REMARK   11  A    between atoms: C_33  and  C_34 
REMARK   12  A    between atoms: C_34  and  C_35 
REMARK   13  A    between atoms: C_35  and  C_36 
REMARK   14  A    between atoms: C_36  and  O_38 
REMARK   15  A    between atoms: C_39  and  C_40 
REMARK   16  A    between atoms: C_40  and  C_41 
REMARK   17  A    between atoms: C_41  and  C_42 
REMARK   18  A    between atoms: C_42  and  O_44 
REMARK   19  A    between atoms: C_45  and  C_46 
REMARK   20  A    between atoms: C_46  and  C_47 
REMARK   21  A    between atoms: C_47  and  O_49 
REMARK   22  A    between atoms: C_50  and  C_51 
REMARK   23  A    between atoms: C_51  and  C_52 
REMARK   24  A    between atoms: C_52  and  O_54 
REMARK   25  A    between atoms: C_55  and  C_56 
REMARK   26  A    between atoms: C_56  and  C_57 
REMARK   27  A    between atoms: C_57  and  C_58 
REMARK   28  A    between atoms: C_58  and  O_60 
ROOT
ATOM      1  O   UNK d   0     -21.715  35.014  17.678  0.00  0.00    -0.650 OA
ATOM      2  C   UNK d   0     -21.606  34.031  18.445  0.00  0.00     0.139 C 
ENDROOT
BRANCH   2   3
ATOM      3  O   UNK d   0     -20.364  33.674  18.910  0.00  0.00    -0.776 OA
ATOM      4  H   UNK d   0     -19.530  34.204  18.647  0.00  0.00     0.167 HD
ENDBRANCH   2   3
BRANCH   2   5
ATOM      5  C   UNK d   0     -22.816  33.259  18.847  0.00  0.00     0.115 C 
BRANCH   5   6
ATOM      6  C   UNK d   0     -22.543  32.492  20.112  0.00  0.00     0.052 C 
BRANCH   6   7
ATOM      7  C   UNK d   0     -22.122  31.066  19.849  0.00  0.00    -0.020 A 
ATOM      8  C   UNK d   0     -21.024  30.473  20.243  0.00  0.00    -0.011 A 
ATOM      9  C   UNK d   0     -21.053  29.108  19.745  0.00  0.00     0.067 A 
ATOM     10  C   UNK d   0     -20.220  27.981  19.829  0.00  0.00     0.062 C 
ATOM     11  N   UNK d   0     -22.202  28.958  19.053  0.00  0.00    -0.248 NA
ATOM     12  C   UNK d   0     -20.550  26.659  19.514  0.00  0.00     0.041 A 
ATOM     13  N   UNK d   0     -21.240  26.139  18.481  0.00  0.00    -0.355 N 
ATOM     14  C   UNK d   0     -20.180  25.634  20.404  0.00  0.00    -0.022 A 
ATOM     15  C   UNK d   0     -21.325  24.813  18.697  0.00  0.00     0.042 A 
ATOM     16  H   UNK d   0     -21.643  26.696  17.606  0.00  0.00     0.166 HD
ATOM     17  C   UNK d   0     -21.935  23.800  17.931  0.00  0.00     0.062 C 
ATOM     18  C   UNK d   0     -20.672  24.459  19.894  0.00  0.00    -0.013 A 
ATOM     19  C   UNK d   0     -23.167  23.798  17.328  0.00  0.00     0.067 A 
ATOM     20  N   UNK d   0     -23.816  24.965  17.275  0.00  0.00    -0.248 NA
ATOM     21  C   UNK d   0     -24.022  22.804  16.701  0.00  0.00    -0.011 A 
ATOM     22  C   UNK d   0     -25.033  24.805  16.660  0.00  0.00     0.066 A 
ATOM     23  C   UNK d   0     -25.800  25.950  16.504  0.00  0.00     0.062 C 
ATOM     24  C   UNK d   0     -25.114  23.399  16.316  0.00  0.00    -0.020 A 
ATOM     25  C   UNK d   0     -25.445  27.272  16.816  0.00  0.00     0.041 A 
ATOM     26  N   UNK d   0     -24.772  27.790  17.850  0.00  0.00    -0.355 N 
ATOM     27  C   UNK d   0     -25.813  28.299  15.919  0.00  0.00    -0.022 A 
ATOM     28  C   UNK d   0     -24.694  29.114  17.641  0.00  0.00     0.042 A 
ATOM     29  H   UNK d   0     -24.377  27.230  18.733  0.00  0.00     0.166 HD
ATOM     30  C   UNK d   0     -24.098  30.134  18.399  0.00  0.00     0.062 C 
ATOM     31  C   UNK d   0     -25.341  29.467  16.433  0.00  0.00    -0.013 A 
ATOM     32  C   UNK d   0     -22.890  30.101  19.078  0.00  0.00     0.066 A 
BRANCH   8  33
ATOM     33  C   UNK d   0     -19.937  31.064  21.045  0.00  0.00     0.151 C 
BRANCH  33  34
ATOM     34  C   UNK d   0     -20.054  30.755  22.481  0.00  0.00     0.143 C 
ATOM     35  O   UNK d   0     -20.652  31.520  23.251  0.00  0.00    -0.650 OA
BRANCH  34  36
ATOM     36  O   UNK d   0     -19.489  29.600  22.971  0.00  0.00    -0.776 OA
ATOM     37  H   UNK d   0     -18.583  29.259  22.623  0.00  0.00     0.167 HD
ENDBRANCH  34  36
ENDBRANCH  33  34
ENDBRANCH   8  33
BRANCH  31  38
ATOM     38  C   UNK d   0     -25.482  30.837  15.811  0.00  0.00     0.151 C 
BRANCH  38  39
ATOM     39  C   UNK d   0     -24.299  31.250  15.088  0.00  0.00     0.143 C 
ATOM     40  O   UNK d   0     -23.590  30.446  14.457  0.00  0.00    -0.650 OA
BRANCH  39  41
ATOM     41  O   UNK d   0     -23.928  32.595  15.089  0.00  0.00    -0.776 OA
ATOM     42  H   UNK d   0     -24.675  33.279  14.937  0.00  0.00     0.167 HD
ENDBRANCH  39  41
ENDBRANCH  38  39
ENDBRANCH  31  38
BRANCH  27  43
ATOM     43  C   UNK d   0     -26.580  28.211  14.624  0.00  0.00     0.052 C 
BRANCH  43  44
ATOM     44  C   UNK d   0     -25.722  27.864  13.451  0.00  0.00     0.115 C 
BRANCH  44  45
ATOM     45  C   UNK d   0     -26.594  27.150  12.483  0.00  0.00     0.139 C 
ATOM     46  O   UNK d   0     -27.512  26.423  12.938  0.00  0.00    -0.650 OA
BRANCH  45  47
ATOM     47  O   UNK d   0     -26.440  27.256  11.118  0.00  0.00    -0.776 OA
ATOM     48  H   UNK d   0     -26.384  28.165  10.629  0.00  0.00     0.167 HD
ENDBRANCH  45  47
ENDBRANCH  44  45
ENDBRANCH  43  44
ENDBRANCH  27  43
BRANCH  24  49
ATOM     49  C   UNK d   0     -26.239  22.772  15.600  0.00  0.00     0.052 C 
BRANCH  49  50
ATOM     50  C   UNK d   0     -26.415  23.405  14.244  0.00  0.00     0.115 C 
BRANCH  50  51
ATOM     51  C   UNK d   0     -25.342  23.217  13.278  0.00  0.00     0.139 C 
ATOM     52  O   UNK d   0     -25.115  22.115  12.724  0.00  0.00    -0.650 OA
BRANCH  51  53
ATOM     53  O   UNK d   0     -24.524  24.286  12.944  0.00  0.00    -0.776 OA
ATOM     54  H   UNK d   0     -23.545  24.109  12.801  0.00  0.00     0.167 HD
ENDBRANCH  51  53
ENDBRANCH  50  51
ENDBRANCH  49  50
ENDBRANCH  24  49
BRANCH  21  55
ATOM     55  C   UNK d   0     -23.656  21.365  16.548  0.00  0.00     0.151 C 
BRANCH  55  56
ATOM     56  C   UNK d   0     -23.047  21.087  15.238  0.00  0.00     0.143 C 
ATOM     57  O   UNK d   0     -22.070  21.726  14.799  0.00  0.00    -0.650 OA
BRANCH  56  58
ATOM     58  O   UNK d   0     -23.598  20.063  14.470  0.00  0.00    -0.776 OA
ATOM     59  H   UNK d   0     -22.910  19.496  13.942  0.00  0.00     0.167 HD
ENDBRANCH  56  58
ENDBRANCH  55  56
ENDBRANCH  21  55
BRANCH  18  60
ATOM     60  C   UNK d   0     -20.513  23.103  20.536  0.00  0.00     0.151 C 
BRANCH  60  61
ATOM     61  C   UNK d   0     -21.683  22.930  21.410  0.00  0.00     0.143 C 
ATOM     62  O   UNK d   0     -22.849  22.744  21.060  0.00  0.00    -0.650 OA
BRANCH  61  63
ATOM     63  O   UNK d   0     -21.413  22.989  22.798  0.00  0.00    -0.776 OA
ATOM     64  H   UNK d   0     -21.319  22.150  23.344  0.00  0.00     0.167 HD
ENDBRANCH  61  63
ENDBRANCH  60  61
ENDBRANCH  18  60
BRANCH  14  65
ATOM     65  C   UNK d   0     -19.322  25.668  21.637  0.00  0.00     0.052 C 
BRANCH  65  66
ATOM     66  C   UNK d   0     -20.068  26.088  22.853  0.00  0.00     0.115 C 
BRANCH  66  67
ATOM     67  C   UNK d   0     -19.383  26.178  24.112  0.00  0.00     0.139 C 
ATOM     68  O   UNK d   0     -18.633  27.199  24.332  0.00  0.00    -0.650 OA
BRANCH  67  69
ATOM     69  O   UNK d   0     -19.422  25.271  25.171  0.00  0.00    -0.776 OA
ATOM     70  H   UNK d   0     -19.892  25.601  26.026  0.00  0.00     0.167 HD
ENDBRANCH  67  69
ENDBRANCH  66  67
ENDBRANCH  65  66
ENDBRANCH  14  65
ENDBRANCH   6   7
ENDBRANCH   5   6
ENDBRANCH   2   5
TORSDOF 28
ENDMDL
MODEL 19
REMARK VINA RESULT:      -6.7      6.636     10.891
REMARK  28 active torsions:
REMARK  status: ('A' for Active; 'I' for Inactive)
REMARK    1  A    between atoms: C_2  and  O_3 
REMARK    2  A    between atoms: C_2  and  C_4 
REMARK    3  A    between atoms: C_4  and  C_5 
REMARK    4  A    between atoms: C_5  and  C_6 
REMARK    5  A    between atoms: C_7  and  C_8 
REMARK    6  A    between atoms: C_8  and  C_9 
REMARK    7  A    between atoms: C_9  and  O_11 
REMARK    8  A    between atoms: C_28  and  C_29 
REMARK    9  A    between atoms: C_29  and  C_30 
REMARK   10  A    between atoms: C_30  and  O_32 
REMARK   11  A    between atoms: C_33  and  C_34 
REMARK   12  A    between atoms: C_34  and  C_35 
REMARK   13  A    between atoms: C_35  and  C_36 
REMARK   14  A    between atoms: C_36  and  O_38 
REMARK   15  A    between atoms: C_39  and  C_40 
REMARK   16  A    between atoms: C_40  and  C_41 
REMARK   17  A    between atoms: C_41  and  C_42 
REMARK   18  A    between atoms: C_42  and  O_44 
REMARK   19  A    between atoms: C_45  and  C_46 
REMARK   20  A    between atoms: C_46  and  C_47 
REMARK   21  A    between atoms: C_47  and  O_49 
REMARK   22  A    between atoms: C_50  and  C_51 
REMARK   23  A    between atoms: C_51  and  C_52 
REMARK   24  A    between atoms: C_52  and  O_54 
REMARK   25  A    between atoms: C_55  and  C_56 
REMARK   26  A    between atoms: C_56  and  C_57 
REMARK   27  A    between atoms: C_57  and  C_58 
REMARK   28  A    between atoms: C_58  and  O_60 
ROOT
ATOM      1  O   UNK d   0     -25.751  14.265  21.551  0.00  0.00    -0.650 OA
ATOM      2  C   UNK d   0     -24.793  13.531  21.220  0.00  0.00     0.139 C 
ENDROOT
BRANCH   2   3
ATOM      3  O   UNK d   0     -24.936  12.676  20.154  0.00  0.00    -0.776 OA
ATOM      4  H   UNK d   0     -25.658  12.830  19.447  0.00  0.00     0.167 HD
ENDBRANCH   2   3
BRANCH   2   5
ATOM      5  C   UNK d   0     -23.511  13.588  21.978  0.00  0.00     0.115 C 
BRANCH   5   6
ATOM      6  C   UNK d   0     -22.390  14.012  21.069  0.00  0.00     0.052 C 
BRANCH   6   7
ATOM      7  C   UNK d   0     -22.416  15.491  20.766  0.00  0.00    -0.020 A 
ATOM      8  C   UNK d   0     -21.957  16.467  21.507  0.00  0.00    -0.011 A 
ATOM      9  C   UNK d   0     -22.214  17.715  20.809  0.00  0.00     0.067 A 
ATOM     10  C   UNK d   0     -21.961  19.076  21.042  0.00  0.00     0.062 C 
ATOM     11  N   UNK d   0     -22.838  17.407  19.653  0.00  0.00    -0.248 NA
ATOM     12  C   UNK d   0     -22.036  20.122  20.116  0.00  0.00     0.041 A 
ATOM     13  N   UNK d   0     -22.945  20.398  19.162  0.00  0.00    -0.355 N 
ATOM     14  C   UNK d   0     -20.994  21.066  20.070  0.00  0.00    -0.022 A 
ATOM     15  C   UNK d   0     -22.503  21.487  18.506  0.00  0.00     0.042 A 
ATOM     16  H   UNK d   0     -23.890  19.845  18.968  0.00  0.00     0.166 HD
ATOM     17  C   UNK d   0     -23.066  22.195  17.425  0.00  0.00     0.062 C 
ATOM     18  C   UNK d   0     -21.282  21.935  19.047  0.00  0.00    -0.013 A 
ATOM     19  C   UNK d   0     -23.626  21.706  16.272  0.00  0.00     0.067 A 
ATOM     20  N   UNK d   0     -23.859  20.392  16.224  0.00  0.00    -0.248 NA
ATOM     21  C   UNK d   0     -24.049  22.263  14.998  0.00  0.00    -0.011 A 
ATOM     22  C   UNK d   0     -24.403  20.049  15.010  0.00  0.00     0.066 A 
ATOM     23  C   UNK d   0     -24.732  18.713  14.837  0.00  0.00     0.062 C 
ATOM     24  C   UNK d   0     -24.499  21.288  14.263  0.00  0.00    -0.020 A 
ATOM     25  C   UNK d   0     -24.661  17.680  15.784  0.00  0.00     0.041 A 
ATOM     26  N   UNK d   0     -23.750  17.397  16.723  0.00  0.00    -0.355 N 
ATOM     27  C   UNK d   0     -25.710  16.735  15.833  0.00  0.00    -0.022 A 
ATOM     28  C   UNK d   0     -24.185  16.306  17.373  0.00  0.00     0.042 A 
ATOM     29  H   UNK d   0     -22.795  17.948  16.910  0.00  0.00     0.166 HD
ATOM     30  C   UNK d   0     -23.630  15.587  18.443  0.00  0.00     0.062 C 
ATOM     31  C   UNK d   0     -25.417  15.863  16.836  0.00  0.00    -0.013 A 
ATOM     32  C   UNK d   0     -22.989  16.084  19.566  0.00  0.00     0.066 A 
BRANCH   8  33
ATOM     33  C   UNK d   0     -21.300  16.345  22.822  0.00  0.00     0.151 C 
BRANCH  33  34
ATOM     34  C   UNK d   0     -19.977  16.994  22.860  0.00  0.00     0.143 C 
ATOM     35  O   UNK d   0     -19.803  18.048  23.489  0.00  0.00    -0.650 OA
BRANCH  34  36
ATOM     36  O   UNK d   0     -18.924  16.421  22.185  0.00  0.00    -0.776 OA
ATOM     37  H   UNK d   0     -18.189  15.900  22.685  0.00  0.00     0.167 HD
ENDBRANCH  34  36
ENDBRANCH  33  34
ENDBRANCH   8  33
BRANCH  31  38
ATOM     38  C   UNK d   0     -26.260  14.687  17.269  0.00  0.00     0.151 C 
BRANCH  38  39
ATOM     39  C   UNK d   0     -27.087  14.982  18.419  0.00  0.00     0.143 C 
ATOM     40  O   UNK d   0     -27.408  16.143  18.727  0.00  0.00    -0.650 OA
BRANCH  39  41
ATOM     41  O   UNK d   0     -27.548  13.937  19.219  0.00  0.00    -0.776 OA
ATOM     42  H   UNK d   0     -27.391  14.024  20.228  0.00  0.00     0.167 HD
ENDBRANCH  39  41
ENDBRANCH  38  39
ENDBRANCH  31  38
BRANCH  27  43
ATOM     43  C   UNK d   0     -26.949  16.635  14.979  0.00  0.00     0.052 C 
BRANCH  43  44
ATOM     44  C   UNK d   0     -27.877  17.793  15.146  0.00  0.00     0.115 C 
BRANCH  44  45
ATOM     45  C   UNK d   0     -28.938  17.355  16.091  0.00  0.00     0.139 C 
ATOM     46  O   UNK d   0     -29.448  18.217  16.849  0.00  0.00    -0.650 OA
BRANCH  45  47
ATOM     47  O   UNK d   0     -29.383  16.053  16.163  0.00  0.00    -0.776 OA
ATOM     48  H   UNK d   0     -30.355  15.780  15.946  0.00  0.00     0.167 HD
ENDBRANCH  45  47
ENDBRANCH  44  45
ENDBRANCH  43  44
ENDBRANCH  27  43
BRANCH  24  49
ATOM     49  C   UNK d   0     -25.065  21.412  12.909  0.00  0.00     0.052 C 
BRANCH  49  50
ATOM     50  C   UNK d   0     -26.564  21.259  12.951  0.00  0.00     0.115 C 
BRANCH  50  51
ATOM     51  C   UNK d   0     -27.350  22.469  13.149  0.00  0.00     0.139 C 
ATOM     52  O   UNK d   0     -27.907  23.076  12.205  0.00  0.00    -0.650 OA
BRANCH  51  53
ATOM     53  O   UNK d   0     -27.500  22.989  14.426  0.00  0.00    -0.776 OA
ATOM     54  H   UNK d   0     -28.173  22.561  15.038  0.00  0.00     0.167 HD
ENDBRANCH  51  53
ENDBRANCH  50  51
ENDBRANCH  49  50
ENDBRANCH  24  49
BRANCH  21  55
ATOM     55  C   UNK d   0     -23.963  23.712  14.651  0.00  0.00     0.151 C 
BRANCH  55  56
ATOM     56  C   UNK d   0     -22.632  24.081  14.146  0.00  0.00     0.143 C 
ATOM     57  O   UNK d   0     -21.886  24.888  14.734  0.00  0.00    -0.650 OA
BRANCH  56  58
ATOM     58  O   UNK d   0     -22.204  23.492  12.957  0.00  0.00    -0.776 OA
ATOM     59  H   UNK d   0     -21.176  23.451  12.836  0.00  0.00     0.167 HD
ENDBRANCH  56  58
ENDBRANCH  55  56
ENDBRANCH  21  55
BRANCH  18  60
ATOM     60  C   UNK d   0     -20.421  23.105  18.638  0.00  0.00     0.151 C 
BRANCH  60  61
ATOM     61  C   UNK d   0     -19.660  22.655  17.463  0.00  0.00     0.143 C 
ATOM     62  O   UNK d   0     -18.652  21.947  17.458  0.00  0.00    -0.650 OA
BRANCH  61  63
ATOM     63  O   UNK d   0     -20.161  23.096  16.215  0.00  0.00    -0.776 OA
ATOM     64  H   UNK d   0     -20.950  22.646  15.785  0.00  0.00     0.167 HD
ENDBRANCH  61  63
ENDBRANCH  60  61
ENDBRANCH  18  60
BRANCH  14  65
ATOM     65  C   UNK d   0     -19.810  21.265  20.973  0.00  0.00     0.052 C 
BRANCH  65  66
ATOM     66  C   UNK d   0     -18.554  20.690  20.421  0.00  0.00     0.115 C 
BRANCH  66  67
ATOM     67  C   UNK d   0     -18.077  19.425  20.906  0.00  0.00     0.139 C 
ATOM     68  O   UNK d   0     -18.168  18.399  20.137  0.00  0.00    -0.650 OA
BRANCH  67  69
ATOM     69  O   UNK d   0     -17.507  19.149  22.149  0.00  0.00    -0.776 OA
ATOM     70  H   UNK d   0     -17.651  18.193  22.505  0.00  0.00     0.167 HD
ENDBRANCH  67  69
ENDBRANCH  66  67
ENDBRANCH  65  66
ENDBRANCH  14  65
ENDBRANCH   6   7
ENDBRANCH   5   6
ENDBRANCH   2   5
TORSDOF 28
ENDMDL
MODEL 20
REMARK VINA RESULT:      -6.7      6.055     11.382
REMARK  28 active torsions:
REMARK  status: ('A' for Active; 'I' for Inactive)
REMARK    1  A    between atoms: C_2  and  O_3 
REMARK    2  A    between atoms: C_2  and  C_4 
REMARK    3  A    between atoms: C_4  and  C_5 
REMARK    4  A    between atoms: C_5  and  C_6 
REMARK    5  A    between atoms: C_7  and  C_8 
REMARK    6  A    between atoms: C_8  and  C_9 
REMARK    7  A    between atoms: C_9  and  O_11 
REMARK    8  A    between atoms: C_28  and  C_29 
REMARK    9  A    between atoms: C_29  and  C_30 
REMARK   10  A    between atoms: C_30  and  O_32 
REMARK   11  A    between atoms: C_33  and  C_34 
REMARK   12  A    between atoms: C_34  and  C_35 
REMARK   13  A    between atoms: C_35  and  C_36 
REMARK   14  A    between atoms: C_36  and  O_38 
REMARK   15  A    between atoms: C_39  and  C_40 
REMARK   16  A    between atoms: C_40  and  C_41 
REMARK   17  A    between atoms: C_41  and  C_42 
REMARK   18  A    between atoms: C_42  and  O_44 
REMARK   19  A    between atoms: C_45  and  C_46 
REMARK   20  A    between atoms: C_46  and  C_47 
REMARK   21  A    between atoms: C_47  and  O_49 
REMARK   22  A    between atoms: C_50  and  C_51 
REMARK   23  A    between atoms: C_51  and  C_52 
REMARK   24  A    between atoms: C_52  and  O_54 
REMARK   25  A    between atoms: C_55  and  C_56 
REMARK   26  A    between atoms: C_56  and  C_57 
REMARK   27  A    between atoms: C_57  and  C_58 
REMARK   28  A    between atoms: C_58  and  O_60 
ROOT
ATOM      1  O   UNK d   0     -26.032  12.662  20.937  0.00  0.00    -0.650 OA
ATOM      2  C   UNK d   0     -26.059  13.537  20.042  0.00  0.00     0.139 C 
ENDROOT
BRANCH   2   3
ATOM      3  O   UNK d   0     -26.712  14.722  20.279  0.00  0.00    -0.776 OA
ATOM      4  H   UNK d   0     -27.241  15.190  19.541  0.00  0.00     0.167 HD
ENDBRANCH   2   3
BRANCH   2   5
ATOM      5  C   UNK d   0     -25.390  13.290  18.734  0.00  0.00     0.115 C 
BRANCH   5   6
ATOM      6  C   UNK d   0     -23.898  13.415  18.884  0.00  0.00     0.052 C 
BRANCH   6   7
ATOM      7  C   UNK d   0     -23.457  14.834  19.149  0.00  0.00    -0.020 A 
ATOM      8  C   UNK d   0     -22.863  15.299  20.218  0.00  0.00    -0.011 A 
ATOM      9  C   UNK d   0     -22.643  16.722  20.022  0.00  0.00     0.067 A 
ATOM     10  C   UNK d   0     -22.055  17.766  20.754  0.00  0.00     0.062 C 
ATOM     11  N   UNK d   0     -23.140  17.041  18.809  0.00  0.00    -0.248 NA
ATOM     12  C   UNK d   0     -21.685  19.029  20.279  0.00  0.00     0.041 A 
ATOM     13  N   UNK d   0     -22.318  19.887  19.457  0.00  0.00    -0.355 N 
ATOM     14  C   UNK d   0     -20.425  19.546  20.630  0.00  0.00    -0.022 A 
ATOM     15  C   UNK d   0     -21.489  20.932  19.272  0.00  0.00     0.042 A 
ATOM     16  H   UNK d   0     -23.339  19.767  19.033  0.00  0.00     0.166 HD
ATOM     17  C   UNK d   0     -21.653  22.104  18.507  0.00  0.00     0.062 C 
ATOM     18  C   UNK d   0     -20.291  20.753  19.991  0.00  0.00    -0.013 A 
ATOM     19  C   UNK d   0     -22.141  22.241  17.233  0.00  0.00     0.067 A 
ATOM     20  N   UNK d   0     -22.726  21.170  16.691  0.00  0.00    -0.248 NA
ATOM     21  C   UNK d   0     -22.185  23.302  16.240  0.00  0.00    -0.011 A 
ATOM     22  C   UNK d   0     -23.148  21.453  15.415  0.00  0.00     0.066 A 
ATOM     23  C   UNK d   0     -23.811  20.435  14.745  0.00  0.00     0.062 C 
ATOM     24  C   UNK d   0     -22.772  22.833  15.176  0.00  0.00    -0.020 A 
ATOM     25  C   UNK d   0     -24.184  19.177  15.244  0.00  0.00     0.041 A 
ATOM     26  N   UNK d   0     -23.548  18.317  16.049  0.00  0.00    -0.355 N 
ATOM     27  C   UNK d   0     -25.451  18.661  14.895  0.00  0.00    -0.022 A 
ATOM     28  C   UNK d   0     -24.370  17.271  16.228  0.00  0.00     0.042 A 
ATOM     29  H   UNK d   0     -22.518  18.435  16.466  0.00  0.00     0.166 HD
ATOM     30  C   UNK d   0     -24.216  16.094  16.978  0.00  0.00     0.062 C 
ATOM     31  C   UNK d   0     -25.577  17.456  15.514  0.00  0.00    -0.013 A 
ATOM     32  C   UNK d   0     -23.644  15.949  18.232  0.00  0.00     0.066 A 
BRANCH   8  33
ATOM     33  C   UNK d   0     -22.480  14.535  21.420  0.00  0.00     0.151 C 
BRANCH  33  34
ATOM     34  C   UNK d   0     -23.256  14.921  22.613  0.00  0.00     0.143 C 
ATOM     35  O   UNK d   0     -22.687  15.264  23.659  0.00  0.00    -0.650 OA
BRANCH  34  36
ATOM     36  O   UNK d   0     -24.630  14.899  22.561  0.00  0.00    -0.776 OA
ATOM     37  H   UNK d   0     -25.143  15.347  21.790  0.00  0.00     0.167 HD
ENDBRANCH  34  36
ENDBRANCH  33  34
ENDBRANCH   8  33
BRANCH  31  38
ATOM     38  C   UNK d   0     -26.776  16.539  15.444  0.00  0.00     0.151 C 
BRANCH  38  39
ATOM     39  C   UNK d   0     -27.718  16.762  16.520  0.00  0.00     0.143 C 
ATOM     40  O   UNK d   0     -28.711  17.500  16.394  0.00  0.00    -0.650 OA
BRANCH  39  41
ATOM     41  O   UNK d   0     -27.517  16.134  17.749  0.00  0.00    -0.776 OA
ATOM     42  H   UNK d   0     -28.100  16.450  18.530  0.00  0.00     0.167 HD
ENDBRANCH  39  41
ENDBRANCH  38  39
ENDBRANCH  31  38
BRANCH  27  43
ATOM     43  C   UNK d   0     -26.519  19.259  14.013  0.00  0.00     0.052 C 
BRANCH  43  44
ATOM     44  C   UNK d   0     -27.406  20.223  14.730  0.00  0.00     0.115 C 
BRANCH  44  45
ATOM     45  C   UNK d   0     -27.847  21.224  13.723  0.00  0.00     0.139 C 
ATOM     46  O   UNK d   0     -27.567  21.013  12.518  0.00  0.00    -0.650 OA
BRANCH  45  47
ATOM     47  O   UNK d   0     -28.550  22.361  14.058  0.00  0.00    -0.776 OA
ATOM     48  H   UNK d   0     -28.621  23.180  13.433  0.00  0.00     0.167 HD
ENDBRANCH  45  47
ENDBRANCH  44  45
ENDBRANCH  43  44
ENDBRANCH  27  43
BRANCH  24  49
ATOM     49  C   UNK d   0     -23.061  23.582  13.942  0.00  0.00     0.052 C 
BRANCH  49  50
ATOM     50  C   UNK d   0     -24.425  24.218  14.022  0.00  0.00     0.115 C 
BRANCH  50  51
ATOM     51  C   UNK d   0     -25.404  23.821  13.019  0.00  0.00     0.139 C 
ATOM     52  O   UNK d   0     -26.523  24.375  12.909  0.00  0.00    -0.650 OA
BRANCH  51  53
ATOM     53  O   UNK d   0     -25.108  22.788  12.142  0.00  0.00    -0.776 OA
ATOM     54  H   UNK d   0     -25.850  22.169  11.869  0.00  0.00     0.167 HD
ENDBRANCH  51  53
ENDBRANCH  50  51
ENDBRANCH  49  50
ENDBRANCH  24  49
BRANCH  21  55
ATOM     55  C   UNK d   0     -21.640  24.674  16.458  0.00  0.00     0.151 C 
BRANCH  55  56
ATOM     56  C   UNK d   0     -20.180  24.665  16.643  0.00  0.00     0.143 C 
ATOM     57  O   UNK d   0     -19.596  25.418  17.446  0.00  0.00    -0.650 OA
BRANCH  56  58
ATOM     58  O   UNK d   0     -19.435  23.768  15.878  0.00  0.00    -0.776 OA
ATOM     59  H   UNK d   0     -19.987  23.202  15.209  0.00  0.00     0.167 HD
ENDBRANCH  56  58
ENDBRANCH  55  56
ENDBRANCH  21  55
BRANCH  18  60
ATOM     60  C   UNK d   0     -19.082  21.650  20.082  0.00  0.00     0.151 C 
BRANCH  60  61
ATOM     61  C   UNK d   0     -18.216  21.277  18.953  0.00  0.00     0.143 C 
ATOM     62  O   UNK d   0     -18.307  21.665  17.788  0.00  0.00    -0.650 OA
BRANCH  61  63
ATOM     63  O   UNK d   0     -17.173  20.372  19.267  0.00  0.00    -0.776 OA
ATOM     64  H   UNK d   0     -17.372  19.468  19.657  0.00  0.00     0.167 HD
ENDBRANCH  61  63
ENDBRANCH  60  61
ENDBRANCH  18  60
BRANCH  14  65
ATOM     65  C   UNK d   0     -19.389  19.036  21.592  0.00  0.00     0.052 C 
BRANCH  65  66
ATOM     66  C   UNK d   0     -19.633  19.471  22.994  0.00  0.00     0.115 C 
BRANCH  66  67
ATOM     67  C   UNK d   0     -18.690  20.334  23.646  0.00  0.00     0.139 C 
ATOM     68  O   UNK d   0     -18.881  20.630  24.882  0.00  0.00    -0.650 OA
BRANCH  67  69
ATOM     69  O   UNK d   0     -17.548  20.919  23.098  0.00  0.00    -0.776 OA
ATOM     70  H   UNK d   0     -17.199  20.492  22.229  0.00  0.00     0.167 HD
ENDBRANCH  67  69
ENDBRANCH  66  67
ENDBRANCH  65  66
ENDBRANCH  14  65
ENDBRANCH   6   7
ENDBRANCH   5   6
ENDBRANCH   2   5
TORSDOF 28
ENDMDL
