MODEL 1
REMARK VINA RESULT:      -8.6      0.000      0.000
REMARK  16 active torsions:
REMARK  status: ('A' for Active; 'I' for Inactive)
REMARK    1  A    between atoms: C_6  and  C_7 
REMARK    2  A    between atoms: C_7  and  C_8 
REMARK    3  A    between atoms: C_8  and  C_9 
REMARK    4  A    between atoms: C_9  and  O_11 
REMARK    5  A    between atoms: C_16  and  C_17 
REMARK    6  A    between atoms: C_17  and  C_18 
REMARK    7  A    between atoms: C_18  and  C_19 
REMARK    8  A    between atoms: C_19  and  O_21 
REMARK    9  A    between atoms: C_28  and  C_29 
REMARK   10  A    between atoms: C_29  and  C_30 
REMARK   11  A    between atoms: C_30  and  C_31 
REMARK   12  A    between atoms: C_31  and  O_33 
REMARK   13  A    between atoms: C_42  and  C_43 
REMARK   14  A    between atoms: C_43  and  C_44 
REMARK   15  A    between atoms: C_44  and  C_45 
REMARK   16  A    between atoms: C_45  and  O_47 
ROOT
HETATM    1  C   UNK     0     -30.636  -4.797   4.274  0.00  0.00     0.051 C 
HETATM    2  C   UNK     0     -30.931  -4.876   5.758  0.00  0.00    -0.031 A 
HETATM    3  C   UNK     0     -30.758  -3.915   6.742  0.00  0.00     0.021 A 
HETATM    4  N   UNK     0     -31.128  -4.435   7.936  0.00  0.00    -0.361 N 
HETATM    5  C   UNK     0     -31.541  -5.703   7.734  0.00  0.00     0.022 A 
HETATM    6  C   UNK     0     -31.429  -6.013   6.383  0.00  0.00    -0.027 A 
HETATM    7  C   UNK     0     -32.134  -6.677   8.704  0.00  0.00     0.115 C 
HETATM    8  C   UNK     0     -33.164  -6.130   9.676  0.00  0.00     0.021 A 
HETATM    9  N   UNK     0     -34.088  -5.179   9.468  0.00  0.00    -0.361 N 
HETATM   10  C   UNK     0     -34.723  -4.948  10.636  0.00  0.00     0.022 A 
HETATM   11  C   UNK     0     -34.200  -5.781  11.622  0.00  0.00    -0.027 A 
HETATM   12  C   UNK     0     -33.218  -6.528  11.024  0.00  0.00    -0.031 A 
HETATM   13  C   UNK     0     -32.375  -7.577  11.714  0.00  0.00     0.051 C 
HETATM   14  C   UNK     0     -35.806  -3.902  10.882  0.00  0.00     0.115 C 
HETATM   15  C   UNK     0     -35.350  -2.473  10.634  0.00  0.00     0.021 A 
HETATM   16  N   UNK     0     -34.860  -1.954   9.492  0.00  0.00    -0.361 N 
HETATM   17  C   UNK     0     -34.509  -0.684   9.703  0.00  0.00     0.022 A 
HETATM   18  C   UNK     0     -34.794  -0.356  11.044  0.00  0.00    -0.027 A 
HETATM   19  C   UNK     0     -35.321  -1.485  11.615  0.00  0.00    -0.031 A 
HETATM   20  C   UNK     0     -35.801  -1.557  13.053  0.00  0.00     0.051 C 
HETATM   21  C   UNK     0     -33.849   0.309   8.774  0.00  0.00     0.115 C 
HETATM   22  C   UNK     0     -32.855  -0.228   7.772  0.00  0.00     0.022 A 
HETATM   23  N   UNK     0     -31.927  -1.177   7.950  0.00  0.00    -0.361 N 
HETATM   24  C   UNK     0     -31.360  -1.445   6.756  0.00  0.00     0.021 A 
HETATM   25  C   UNK     0     -31.930  -0.642   5.787  0.00  0.00    -0.031 A 
HETATM   26  C   UNK     0     -31.602  -0.549   4.312  0.00  0.00     0.051 C 
HETATM   27  C   UNK     0     -32.890   0.146   6.413  0.00  0.00    -0.027 A 
HETATM   28  C   UNK     0     -30.325  -2.509   6.437  0.00  0.00     0.115 C 
HETATM   29  H   UNK     0     -31.056  -3.916   8.920  0.00  0.00     0.165 HD
HETATM   30  H   UNK     0     -34.328  -4.704   8.485  0.00  0.00     0.165 HD
HETATM   31  H   UNK     0     -34.803  -2.481   8.504  0.00  0.00     0.165 HD
HETATM   32  H   UNK     0     -31.632  -1.636   8.929  0.00  0.00     0.165 HD
ENDROOT
BRANCH   6  33
HETATM   33  C   UNK     0     -31.752  -7.290   5.650  0.00  0.00     0.051 C 
BRANCH  33  34
HETATM   34  C   UNK     0     -30.488  -7.971   5.179  0.00  0.00     0.114 C 
BRANCH  34  35
HETATM   35  C   UNK     0     -30.387  -9.272   5.899  0.00  0.00     0.139 C 
HETATM   36  O   UNK     0     -30.352  -9.299   7.164  0.00  0.00    -0.650 OA
BRANCH  35  37
HETATM   37  O   UNK     0     -30.329 -10.492   5.237  0.00  0.00    -0.776 OA
HETATM   38  H   UNK     0     -30.600 -11.355   5.681  0.00  0.00     0.167 HD
ENDBRANCH  35  37
ENDBRANCH  34  35
ENDBRANCH  33  34
ENDBRANCH   6  33
BRANCH  27  39
HETATM   39  C   UNK     0     -33.669   1.194   5.699  0.00  0.00     0.051 C 
BRANCH  39  40
HETATM   40  C   UNK     0     -35.104   0.983   5.510  0.00  0.00     0.114 C 
BRANCH  40  41
HETATM   41  C   UNK     0     -36.095   1.669   6.308  0.00  0.00     0.139 C 
HETATM   42  O   UNK     0     -36.250   2.898   6.299  0.00  0.00    -0.650 OA
BRANCH  41  43
HETATM   43  O   UNK     0     -36.948   0.907   7.156  0.00  0.00    -0.776 OA
HETATM   44  H   UNK     0     -36.539   0.660   8.049  0.00  0.00     0.167 HD
ENDBRANCH  41  43
ENDBRANCH  40  41
ENDBRANCH  39  40
ENDBRANCH  27  39
BRANCH  11  45
HETATM   45  C   UNK     0     -34.594  -5.887  13.071  0.00  0.00     0.051 C 
BRANCH  45  46
HETATM   46  C   UNK     0     -35.961  -5.384  13.366  0.00  0.00     0.114 C 
BRANCH  46  47
HETATM   47  C   UNK     0     -36.913  -6.490  13.060  0.00  0.00     0.139 C 
HETATM   48  O   UNK     0     -37.830  -6.276  12.254  0.00  0.00    -0.650 OA
BRANCH  47  49
HETATM   49  O   UNK     0     -36.781  -7.717  13.659  0.00  0.00    -0.776 OA
HETATM   50  H   UNK     0     -36.089  -7.892  14.397  0.00  0.00     0.167 HD
ENDBRANCH  47  49
ENDBRANCH  46  47
ENDBRANCH  45  46
ENDBRANCH  11  45
BRANCH  18  51
HETATM   51  C   UNK     0     -34.594   0.967  11.736  0.00  0.00     0.051 C 
BRANCH  51  52
HETATM   52  C   UNK     0     -35.971   1.604  11.845  0.00  0.00     0.114 C 
BRANCH  52  53
HETATM   53  C   UNK     0     -36.613   1.754  10.524  0.00  0.00     0.139 C 
HETATM   54  O   UNK     0     -36.234   2.644   9.747  0.00  0.00    -0.650 OA
BRANCH  53  55
HETATM   55  O   UNK     0     -37.632   0.906  10.164  0.00  0.00    -0.776 OA
HETATM   56  H   UNK     0     -38.580   1.162  10.016  0.00  0.00     0.167 HD
ENDBRANCH  53  55
ENDBRANCH  52  53
ENDBRANCH  51  52
ENDBRANCH  18  51
TORSDOF 16
ENDMDL
MODEL 2
REMARK VINA RESULT:      -8.6      2.445      7.436
REMARK  16 active torsions:
REMARK  status: ('A' for Active; 'I' for Inactive)
REMARK    1  A    between atoms: C_6  and  C_7 
REMARK    2  A    between atoms: C_7  and  C_8 
REMARK    3  A    between atoms: C_8  and  C_9 
REMARK    4  A    between atoms: C_9  and  O_11 
REMARK    5  A    between atoms: C_16  and  C_17 
REMARK    6  A    between atoms: C_17  and  C_18 
REMARK    7  A    between atoms: C_18  and  C_19 
REMARK    8  A    between atoms: C_19  and  O_21 
REMARK    9  A    between atoms: C_28  and  C_29 
REMARK   10  A    between atoms: C_29  and  C_30 
REMARK   11  A    between atoms: C_30  and  C_31 
REMARK   12  A    between atoms: C_31  and  O_33 
REMARK   13  A    between atoms: C_42  and  C_43 
REMARK   14  A    between atoms: C_43  and  C_44 
REMARK   15  A    between atoms: C_44  and  C_45 
REMARK   16  A    between atoms: C_45  and  O_47 
ROOT
HETATM    1  C   UNK     0     -29.485  -8.623   4.972  0.00  0.00     0.051 C 
HETATM    2  C   UNK     0     -30.508  -7.513   5.103  0.00  0.00    -0.031 A 
HETATM    3  C   UNK     0     -31.686  -7.484   5.833  0.00  0.00     0.021 A 
HETATM    4  N   UNK     0     -32.302  -6.295   5.630  0.00  0.00    -0.361 N 
HETATM    5  C   UNK     0     -31.538  -5.562   4.794  0.00  0.00     0.022 A 
HETATM    6  C   UNK     0     -30.409  -6.295   4.442  0.00  0.00    -0.027 A 
HETATM    7  C   UNK     0     -31.719  -4.151   4.329  0.00  0.00     0.115 C 
HETATM    8  C   UNK     0     -32.153  -3.139   5.375  0.00  0.00     0.021 A 
HETATM    9  N   UNK     0     -31.814  -3.080   6.672  0.00  0.00    -0.361 N 
HETATM   10  C   UNK     0     -32.507  -2.071   7.241  0.00  0.00     0.022 A 
HETATM   11  C   UNK     0     -33.308  -1.458   6.282  0.00  0.00    -0.027 A 
HETATM   12  C   UNK     0     -33.089  -2.126   5.104  0.00  0.00    -0.031 A 
HETATM   13  C   UNK     0     -33.745  -1.801   3.781  0.00  0.00     0.051 C 
HETATM   14  C   UNK     0     -32.483  -1.681   8.716  0.00  0.00     0.115 C 
HETATM   15  C   UNK     0     -32.955  -2.782   9.652  0.00  0.00     0.021 A 
HETATM   16  N   UNK     0     -32.442  -4.019   9.790  0.00  0.00    -0.361 N 
HETATM   17  C   UNK     0     -33.182  -4.706  10.663  0.00  0.00     0.022 A 
HETATM   18  C   UNK     0     -34.221  -3.873  11.124  0.00  0.00    -0.027 A 
HETATM   19  C   UNK     0     -34.067  -2.670  10.485  0.00  0.00    -0.031 A 
HETATM   20  C   UNK     0     -34.961  -1.467  10.722  0.00  0.00     0.051 C 
HETATM   21  C   UNK     0     -33.073  -6.147  11.107  0.00  0.00     0.115 C 
HETATM   22  C   UNK     0     -32.601  -7.157  10.089  0.00  0.00     0.022 A 
HETATM   23  N   UNK     0     -32.919  -7.238   8.790  0.00  0.00    -0.361 N 
HETATM   24  C   UNK     0     -32.159  -8.198   8.227  0.00  0.00     0.021 A 
HETATM   25  C   UNK     0     -31.339  -8.757   9.188  0.00  0.00    -0.031 A 
HETATM   26  C   UNK     0     -30.344  -9.891   9.051  0.00  0.00     0.051 C 
HETATM   27  C   UNK     0     -31.604  -8.107  10.389  0.00  0.00    -0.027 A 
HETATM   28  C   UNK     0     -32.094  -8.592   6.762  0.00  0.00     0.115 C 
HETATM   29  H   UNK     0     -33.292  -5.997   6.048  0.00  0.00     0.165 HD
HETATM   30  H   UNK     0     -31.048  -3.717   7.178  0.00  0.00     0.165 HD
HETATM   31  H   UNK     0     -31.511  -4.401   9.296  0.00  0.00     0.165 HD
HETATM   32  H   UNK     0     -33.715  -6.646   8.268  0.00  0.00     0.165 HD
ENDROOT
BRANCH   6  33
HETATM   33  C   UNK     0     -29.260  -5.932   3.536  0.00  0.00     0.051 C 
BRANCH  33  34
HETATM   34  C   UNK     0     -29.295  -6.757   2.271  0.00  0.00     0.114 C 
BRANCH  34  35
HETATM   35  C   UNK     0     -27.989  -7.469   2.167  0.00  0.00     0.139 C 
HETATM   36  O   UNK     0     -27.860  -8.450   1.377  0.00  0.00    -0.650 OA
BRANCH  35  37
HETATM   37  O   UNK     0     -26.874  -7.102   2.910  0.00  0.00    -0.776 OA
HETATM   38  H   UNK     0     -26.797  -6.198   3.347  0.00  0.00     0.167 HD
ENDBRANCH  35  37
ENDBRANCH  34  35
ENDBRANCH  33  34
ENDBRANCH   6  33
BRANCH  27  39
HETATM   39  C   UNK     0     -30.959  -8.487  11.675  0.00  0.00     0.051 C 
BRANCH  39  40
HETATM   40  C   UNK     0     -31.571  -9.551  12.470  0.00  0.00     0.114 C 
BRANCH  40  41
HETATM   41  C   UNK     0     -32.098 -10.756  11.870  0.00  0.00     0.139 C 
HETATM   42  O   UNK     0     -31.480 -11.828  11.832  0.00  0.00    -0.650 OA
BRANCH  41  43
HETATM   43  O   UNK     0     -33.396 -10.726  11.285  0.00  0.00    -0.776 OA
HETATM   44  H   UNK     0     -33.882 -11.614  11.298  0.00  0.00     0.167 HD
ENDBRANCH  41  43
ENDBRANCH  40  41
ENDBRANCH  39  40
ENDBRANCH  27  39
BRANCH  11  45
HETATM   45  C   UNK     0     -34.244  -0.290   6.444  0.00  0.00     0.051 C 
BRANCH  45  46
HETATM   46  C   UNK     0     -33.675   0.839   7.223  0.00  0.00     0.114 C 
BRANCH  46  47
HETATM   47  C   UNK     0     -34.807   1.503   7.930  0.00  0.00     0.139 C 
HETATM   48  O   UNK     0     -34.683   2.689   8.264  0.00  0.00    -0.650 OA
BRANCH  47  49
HETATM   49  O   UNK     0     -35.962   0.816   8.206  0.00  0.00    -0.776 OA
HETATM   50  H   UNK     0     -35.954  -0.102   8.667  0.00  0.00     0.167 HD
ENDBRANCH  47  49
ENDBRANCH  46  47
ENDBRANCH  45  46
ENDBRANCH  11  45
BRANCH  18  51
HETATM   51  C   UNK     0     -35.290  -4.199  12.135  0.00  0.00     0.051 C 
BRANCH  51  52
HETATM   52  C   UNK     0     -36.242  -5.168  11.451  0.00  0.00     0.114 C 
BRANCH  52  53
HETATM   53  C   UNK     0     -37.419  -4.479  10.890  0.00  0.00     0.139 C 
HETATM   54  O   UNK     0     -37.720  -3.341  11.284  0.00  0.00    -0.650 OA
BRANCH  53  55
HETATM   55  O   UNK     0     -38.181  -5.104   9.932  0.00  0.00    -0.776 OA
HETATM   56  H   UNK     0     -38.296  -6.084   9.826  0.00  0.00     0.167 HD
ENDBRANCH  53  55
ENDBRANCH  52  53
ENDBRANCH  51  52
ENDBRANCH  18  51
TORSDOF 16
ENDMDL
MODEL 3
REMARK VINA RESULT:      -8.5     22.474     24.887
REMARK  16 active torsions:
REMARK  status: ('A' for Active; 'I' for Inactive)
REMARK    1  A    between atoms: C_6  and  C_7 
REMARK    2  A    between atoms: C_7  and  C_8 
REMARK    3  A    between atoms: C_8  and  C_9 
REMARK    4  A    between atoms: C_9  and  O_11 
REMARK    5  A    between atoms: C_16  and  C_17 
REMARK    6  A    between atoms: C_17  and  C_18 
REMARK    7  A    between atoms: C_18  and  C_19 
REMARK    8  A    between atoms: C_19  and  O_21 
REMARK    9  A    between atoms: C_28  and  C_29 
REMARK   10  A    between atoms: C_29  and  C_30 
REMARK   11  A    between atoms: C_30  and  C_31 
REMARK   12  A    between atoms: C_31  and  O_33 
REMARK   13  A    between atoms: C_42  and  C_43 
REMARK   14  A    between atoms: C_43  and  C_44 
REMARK   15  A    between atoms: C_44  and  C_45 
REMARK   16  A    between atoms: C_45  and  O_47 
ROOT
HETATM    1  C   UNK     0      -9.561   0.465  18.240  0.00  0.00     0.051 C 
HETATM    2  C   UNK     0     -10.618   0.949  17.269  0.00  0.00    -0.031 A 
HETATM    3  C   UNK     0     -11.054   2.240  17.013  0.00  0.00     0.021 A 
HETATM    4  N   UNK     0     -12.041   2.198  16.087  0.00  0.00    -0.361 N 
HETATM    5  C   UNK     0     -12.238   0.909  15.740  0.00  0.00     0.022 A 
HETATM    6  C   UNK     0     -11.367   0.101  16.463  0.00  0.00    -0.027 A 
HETATM    7  C   UNK     0     -13.142   0.332  14.696  0.00  0.00     0.115 C 
HETATM    8  C   UNK     0     -13.198   1.059  13.365  0.00  0.00     0.021 A 
HETATM    9  N   UNK     0     -12.207   1.689  12.714  0.00  0.00    -0.361 N 
HETATM   10  C   UNK     0     -12.732   2.272  11.615  0.00  0.00     0.022 A 
HETATM   11  C   UNK     0     -14.095   2.001  11.551  0.00  0.00    -0.027 A 
HETATM   12  C   UNK     0     -14.396   1.238  12.650  0.00  0.00    -0.031 A 
HETATM   13  C   UNK     0     -15.767   0.701  12.993  0.00  0.00     0.051 C 
HETATM   14  C   UNK     0     -11.982   3.147  10.614  0.00  0.00     0.115 C 
HETATM   15  C   UNK     0     -11.384   4.404  11.224  0.00  0.00     0.021 A 
HETATM   16  N   UNK     0     -10.494   4.486  12.230  0.00  0.00    -0.361 N 
HETATM   17  C   UNK     0     -10.273   5.771  12.517  0.00  0.00     0.022 A 
HETATM   18  C   UNK     0     -11.050   6.565  11.650  0.00  0.00    -0.027 A 
HETATM   19  C   UNK     0     -11.740   5.697  10.844  0.00  0.00    -0.031 A 
HETATM   20  C   UNK     0     -12.675   6.139   9.733  0.00  0.00     0.051 C 
HETATM   21  C   UNK     0      -9.423   6.392  13.602  0.00  0.00     0.115 C 
HETATM   22  C   UNK     0      -9.323   5.656  14.918  0.00  0.00     0.022 A 
HETATM   23  N   UNK     0     -10.291   5.017  15.586  0.00  0.00    -0.361 N 
HETATM   24  C   UNK     0      -9.732   4.379  16.635  0.00  0.00     0.021 A 
HETATM   25  C   UNK     0      -8.372   4.623  16.647  0.00  0.00    -0.031 A 
HETATM   26  C   UNK     0      -7.330   4.161  17.645  0.00  0.00     0.051 C 
HETATM   27  C   UNK     0      -8.086   5.438  15.558  0.00  0.00    -0.027 A 
HETATM   28  C   UNK     0     -10.410   3.451  17.627  0.00  0.00     0.115 C 
HETATM   29  H   UNK     0     -12.618   3.075  15.713  0.00  0.00     0.165 HD
HETATM   30  H   UNK     0     -11.127   1.683  13.002  0.00  0.00     0.165 HD
HETATM   31  H   UNK     0      -9.973   3.621  12.717  0.00  0.00     0.165 HD
HETATM   32  H   UNK     0     -11.387   5.044  15.349  0.00  0.00     0.165 HD
ENDROOT
BRANCH   6  33
HETATM   33  C   UNK     0     -11.195  -1.397  16.448  0.00  0.00     0.051 C 
BRANCH  33  34
HETATM   34  C   UNK     0     -12.167  -2.057  17.398  0.00  0.00     0.114 C 
BRANCH  34  35
HETATM   35  C   UNK     0     -11.461  -3.209  18.029  0.00  0.00     0.139 C 
HETATM   36  O   UNK     0     -10.505  -3.007  18.833  0.00  0.00    -0.650 OA
BRANCH  35  37
HETATM   37  O   UNK     0     -11.810  -4.530  17.778  0.00  0.00    -0.776 OA
HETATM   38  H   UNK     0     -11.216  -5.299  18.043  0.00  0.00     0.167 HD
ENDBRANCH  35  37
ENDBRANCH  34  35
ENDBRANCH  33  34
ENDBRANCH   6  33
BRANCH  27  39
HETATM   39  C   UNK     0      -6.726   5.973  15.281  0.00  0.00     0.051 C 
BRANCH  39  40
HETATM   40  C   UNK     0      -6.395   7.313  15.766  0.00  0.00     0.114 C 
BRANCH  40  41
HETATM   41  C   UNK     0      -7.412   8.280  16.114  0.00  0.00     0.139 C 
HETATM   42  O   UNK     0      -7.942   8.342  17.231  0.00  0.00    -0.650 OA
BRANCH  41  43
HETATM   43  O   UNK     0      -7.840   9.218  15.131  0.00  0.00    -0.776 OA
HETATM   44  H   UNK     0      -8.164  10.100  15.508  0.00  0.00     0.167 HD
ENDBRANCH  41  43
ENDBRANCH  40  41
ENDBRANCH  39  40
ENDBRANCH  27  39
BRANCH  11  45
HETATM   45  C   UNK     0     -15.092   2.430  10.508  0.00  0.00     0.051 C 
BRANCH  45  46
HETATM   46  C   UNK     0     -14.512   3.255   9.417  0.00  0.00     0.114 C 
BRANCH  46  47
HETATM   47  C   UNK     0     -14.990   2.680   8.127  0.00  0.00     0.139 C 
HETATM   48  O   UNK     0     -16.211   2.569   7.945  0.00  0.00    -0.650 OA
BRANCH  47  49
HETATM   49  O   UNK     0     -14.100   2.281   7.162  0.00  0.00    -0.776 OA
HETATM   50  H   UNK     0     -13.433   2.933   6.734  0.00  0.00     0.167 HD
ENDBRANCH  47  49
ENDBRANCH  46  47
ENDBRANCH  45  46
ENDBRANCH  11  45
BRANCH  18  51
HETATM   51  C   UNK     0     -11.114   8.068  11.579  0.00  0.00     0.051 C 
BRANCH  51  52
HETATM   52  C   UNK     0     -12.143   8.500  12.615  0.00  0.00     0.114 C 
BRANCH  52  53
HETATM   53  C   UNK     0     -11.549   9.368  13.650  0.00  0.00     0.139 C 
HETATM   54  O   UNK     0     -12.176   9.607  14.694  0.00  0.00    -0.650 OA
BRANCH  53  55
HETATM   55  O   UNK     0     -10.303   9.910  13.450  0.00  0.00    -0.776 OA
HETATM   56  H   UNK     0     -10.101  10.871  13.305  0.00  0.00     0.167 HD
ENDBRANCH  53  55
ENDBRANCH  52  53
ENDBRANCH  51  52
ENDBRANCH  18  51
TORSDOF 16
ENDMDL
MODEL 4
REMARK VINA RESULT:      -8.4     22.973     25.109
REMARK  16 active torsions:
REMARK  status: ('A' for Active; 'I' for Inactive)
REMARK    1  A    between atoms: C_6  and  C_7 
REMARK    2  A    between atoms: C_7  and  C_8 
REMARK    3  A    between atoms: C_8  and  C_9 
REMARK    4  A    between atoms: C_9  and  O_11 
REMARK    5  A    between atoms: C_16  and  C_17 
REMARK    6  A    between atoms: C_17  and  C_18 
REMARK    7  A    between atoms: C_18  and  C_19 
REMARK    8  A    between atoms: C_19  and  O_21 
REMARK    9  A    between atoms: C_28  and  C_29 
REMARK   10  A    between atoms: C_29  and  C_30 
REMARK   11  A    between atoms: C_30  and  C_31 
REMARK   12  A    between atoms: C_31  and  O_33 
REMARK   13  A    between atoms: C_42  and  C_43 
REMARK   14  A    between atoms: C_43  and  C_44 
REMARK   15  A    between atoms: C_44  and  C_45 
REMARK   16  A    between atoms: C_45  and  O_47 
ROOT
HETATM    1  C   UNK     0     -14.936   6.458   9.666  0.00  0.00     0.051 C 
HETATM    2  C   UNK     0     -13.873   5.575  10.287  0.00  0.00    -0.031 A 
HETATM    3  C   UNK     0     -12.531   5.838  10.512  0.00  0.00     0.021 A 
HETATM    4  N   UNK     0     -11.953   4.745  11.062  0.00  0.00    -0.361 N 
HETATM    5  C   UNK     0     -12.899   3.793  11.201  0.00  0.00     0.022 A 
HETATM    6  C   UNK     0     -14.112   4.278  10.723  0.00  0.00    -0.027 A 
HETATM    7  C   UNK     0     -12.803   2.441  11.837  0.00  0.00     0.115 C 
HETATM    8  C   UNK     0     -12.035   2.356  13.144  0.00  0.00     0.021 A 
HETATM    9  N   UNK     0     -11.969   3.257  14.136  0.00  0.00    -0.361 N 
HETATM   10  C   UNK     0     -11.095   2.802  15.058  0.00  0.00     0.022 A 
HETATM   11  C   UNK     0     -10.590   1.570  14.654  0.00  0.00    -0.027 A 
HETATM   12  C   UNK     0     -11.178   1.283  13.449  0.00  0.00    -0.031 A 
HETATM   13  C   UNK     0     -10.933   0.034  12.632  0.00  0.00     0.051 C 
HETATM   14  C   UNK     0     -10.662   3.532  16.327  0.00  0.00     0.115 C 
HETATM   15  C   UNK     0      -9.980   4.866  16.067  0.00  0.00     0.021 A 
HETATM   16  N   UNK     0     -10.482   5.931  15.413  0.00  0.00    -0.361 N 
HETATM   17  C   UNK     0      -9.546   6.880  15.337  0.00  0.00     0.022 A 
HETATM   18  C   UNK     0      -8.382   6.415  15.981  0.00  0.00    -0.027 A 
HETATM   19  C   UNK     0      -8.667   5.153  16.434  0.00  0.00    -0.031 A 
HETATM   20  C   UNK     0      -7.691   4.299  17.222  0.00  0.00     0.051 C 
HETATM   21  C   UNK     0      -9.580   8.226  14.650  0.00  0.00     0.115 C 
HETATM   22  C   UNK     0     -10.377   8.336  13.372  0.00  0.00     0.022 A 
HETATM   23  N   UNK     0     -10.464   7.453  12.369  0.00  0.00    -0.361 N 
HETATM   24  C   UNK     0     -11.398   7.889  11.500  0.00  0.00     0.021 A 
HETATM   25  C   UNK     0     -11.918   9.088  11.949  0.00  0.00    -0.031 A 
HETATM   26  C   UNK     0     -12.957   9.979  11.300  0.00  0.00     0.051 C 
HETATM   27  C   UNK     0     -11.280   9.395  13.145  0.00  0.00    -0.027 A 
HETATM   28  C   UNK     0     -11.914   7.184  10.257  0.00  0.00     0.115 C 
HETATM   29  H   UNK     0     -10.872   4.639  11.313  0.00  0.00     0.165 HD
HETATM   30  H   UNK     0     -12.577   4.192  14.212  0.00  0.00     0.165 HD
HETATM   31  H   UNK     0     -11.533   6.035  15.039  0.00  0.00     0.165 HD
HETATM   32  H   UNK     0      -9.836   6.533  12.242  0.00  0.00     0.165 HD
ENDROOT
BRANCH   6  33
HETATM   33  C   UNK     0     -15.462   3.610  10.648  0.00  0.00     0.051 C 
BRANCH  33  34
HETATM   34  C   UNK     0     -15.508   2.623   9.506  0.00  0.00     0.114 C 
BRANCH  34  35
HETATM   35  C   UNK     0     -16.208   3.287   8.369  0.00  0.00     0.139 C 
HETATM   36  O   UNK     0     -17.473   3.300   8.321  0.00  0.00    -0.650 OA
BRANCH  35  37
HETATM   37  O   UNK     0     -15.527   3.912   7.332  0.00  0.00    -0.776 OA
HETATM   38  H   UNK     0     -14.524   4.001   7.328  0.00  0.00     0.167 HD
ENDBRANCH  35  37
ENDBRANCH  34  35
ENDBRANCH  33  34
ENDBRANCH   6  33
BRANCH  27  39
HETATM   39  C   UNK     0     -11.528  10.656  13.896  0.00  0.00     0.051 C 
BRANCH  39  40
HETATM   40  C   UNK     0     -10.755  11.843  13.532  0.00  0.00     0.114 C 
BRANCH  40  41
HETATM   41  C   UNK     0     -11.340  12.952  12.811  0.00  0.00     0.139 C 
HETATM   42  O   UNK     0     -10.788  13.513  11.854  0.00  0.00    -0.650 OA
BRANCH  41  43
HETATM   43  O   UNK     0     -12.618  13.438  13.209  0.00  0.00    -0.776 OA
HETATM   44  H   UNK     0     -12.954  14.225  12.667  0.00  0.00     0.167 HD
ENDBRANCH  41  43
ENDBRANCH  40  41
ENDBRANCH  39  40
ENDBRANCH  27  39
BRANCH  11  45
HETATM   45  C   UNK     0      -9.599   0.682  15.357  0.00  0.00     0.051 C 
BRANCH  45  46
HETATM   46  C   UNK     0     -10.039   0.227  16.700  0.00  0.00     0.114 C 
BRANCH  46  47
HETATM   47  C   UNK     0     -10.721  -1.087  16.520  0.00  0.00     0.139 C 
HETATM   48  O   UNK     0     -11.952  -1.102  16.382  0.00  0.00    -0.650 OA
BRANCH  47  49
HETATM   49  O   UNK     0     -10.002  -2.256  16.509  0.00  0.00    -0.776 OA
HETATM   50  H   UNK     0     -10.292  -3.069  15.953  0.00  0.00     0.167 HD
ENDBRANCH  47  49
ENDBRANCH  46  47
ENDBRANCH  45  46
ENDBRANCH  11  45
BRANCH  18  51
HETATM   51  C   UNK     0      -7.076   7.141  16.172  0.00  0.00     0.051 C 
BRANCH  51  52
HETATM   52  C   UNK     0      -7.236   7.984  17.428  0.00  0.00     0.114 C 
BRANCH  52  53
HETATM   53  C   UNK     0      -6.627   9.320  17.275  0.00  0.00     0.139 C 
HETATM   54  O   UNK     0      -5.847   9.749  18.140  0.00  0.00    -0.650 OA
BRANCH  53  55
HETATM   55  O   UNK     0      -6.932  10.084  16.175  0.00  0.00    -0.776 OA
HETATM   56  H   UNK     0      -6.491  10.031  15.287  0.00  0.00     0.167 HD
ENDBRANCH  53  55
ENDBRANCH  52  53
ENDBRANCH  51  52
ENDBRANCH  18  51
TORSDOF 16
ENDMDL
MODEL 5
REMARK VINA RESULT:      -8.1     20.478     23.186
REMARK  16 active torsions:
REMARK  status: ('A' for Active; 'I' for Inactive)
REMARK    1  A    between atoms: C_6  and  C_7 
REMARK    2  A    between atoms: C_7  and  C_8 
REMARK    3  A    between atoms: C_8  and  C_9 
REMARK    4  A    between atoms: C_9  and  O_11 
REMARK    5  A    between atoms: C_16  and  C_17 
REMARK    6  A    between atoms: C_17  and  C_18 
REMARK    7  A    between atoms: C_18  and  C_19 
REMARK    8  A    between atoms: C_19  and  O_21 
REMARK    9  A    between atoms: C_28  and  C_29 
REMARK   10  A    between atoms: C_29  and  C_30 
REMARK   11  A    between atoms: C_30  and  C_31 
REMARK   12  A    between atoms: C_31  and  O_33 
REMARK   13  A    between atoms: C_42  and  C_43 
REMARK   14  A    between atoms: C_43  and  C_44 
REMARK   15  A    between atoms: C_44  and  C_45 
REMARK   16  A    between atoms: C_45  and  O_47 
ROOT
HETATM    1  C   UNK     0     -15.299  -0.101  11.764  0.00  0.00     0.051 C 
HETATM    2  C   UNK     0     -14.529   0.162  13.042  0.00  0.00    -0.031 A 
HETATM    3  C   UNK     0     -14.968   0.128  14.356  0.00  0.00     0.021 A 
HETATM    4  N   UNK     0     -13.941   0.461  15.173  0.00  0.00    -0.361 N 
HETATM    5  C   UNK     0     -12.855   0.698  14.409  0.00  0.00     0.022 A 
HETATM    6  C   UNK     0     -13.188   0.522  13.070  0.00  0.00    -0.027 A 
HETATM    7  C   UNK     0     -11.450   1.008  14.822  0.00  0.00     0.115 C 
HETATM    8  C   UNK     0     -10.887   0.204  15.981  0.00  0.00     0.021 A 
HETATM    9  N   UNK     0     -11.108  -1.082  16.292  0.00  0.00    -0.361 N 
HETATM   10  C   UNK     0     -10.477  -1.347  17.455  0.00  0.00     0.022 A 
HETATM   11  C   UNK     0      -9.824  -0.202  17.902  0.00  0.00    -0.027 A 
HETATM   12  C   UNK     0     -10.078   0.779  16.977  0.00  0.00    -0.031 A 
HETATM   13  C   UNK     0      -9.563   2.200  17.046  0.00  0.00     0.051 C 
HETATM   14  C   UNK     0     -10.508  -2.669  18.217  0.00  0.00     0.115 C 
HETATM   15  C   UNK     0     -11.899  -3.092  18.660  0.00  0.00     0.021 A 
HETATM   16  N   UNK     0     -12.977  -3.310  17.884  0.00  0.00    -0.361 N 
HETATM   17  C   UNK     0     -14.025  -3.597  18.660  0.00  0.00     0.022 A 
HETATM   18  C   UNK     0     -13.608  -3.573  20.006  0.00  0.00    -0.027 A 
HETATM   19  C   UNK     0     -12.274  -3.257  19.992  0.00  0.00    -0.031 A 
HETATM   20  C   UNK     0     -11.417  -3.161  21.241  0.00  0.00     0.051 C 
HETATM   21  C   UNK     0     -15.469  -3.849  18.289  0.00  0.00     0.115 C 
HETATM   22  C   UNK     0     -16.029  -3.089  17.110  0.00  0.00     0.022 A 
HETATM   23  N   UNK     0     -15.823  -1.809  16.773  0.00  0.00    -0.361 N 
HETATM   24  C   UNK     0     -16.396  -1.589  15.573  0.00  0.00     0.021 A 
HETATM   25  C   UNK     0     -16.994  -2.753  15.130  0.00  0.00    -0.031 A 
HETATM   26  C   UNK     0     -17.791  -2.994  13.864  0.00  0.00     0.051 C 
HETATM   27  C   UNK     0     -16.773  -3.727  16.097  0.00  0.00    -0.027 A 
HETATM   28  C   UNK     0     -16.350  -0.320  14.740  0.00  0.00     0.115 C 
HETATM   29  H   UNK     0     -14.001   0.565  16.282  0.00  0.00     0.165 HD
HETATM   30  H   UNK     0     -11.668  -1.820  15.666  0.00  0.00     0.165 HD
HETATM   31  H   UNK     0     -12.989  -3.310  16.763  0.00  0.00     0.165 HD
HETATM   32  H   UNK     0     -15.308  -1.037  17.401  0.00  0.00     0.165 HD
ENDROOT
BRANCH   6  33
HETATM   33  C   UNK     0     -12.341   0.672  11.832  0.00  0.00     0.051 C 
BRANCH  33  34
HETATM   34  C   UNK     0     -12.608   1.997  11.158  0.00  0.00     0.114 C 
BRANCH  34  35
HETATM   35  C   UNK     0     -11.880   1.991   9.857  0.00  0.00     0.139 C 
HETATM   36  O   UNK     0     -10.642   1.729   9.820  0.00  0.00    -0.650 OA
BRANCH  35  37
HETATM   37  O   UNK     0     -12.507   2.262   8.647  0.00  0.00    -0.776 OA
HETATM   38  H   UNK     0     -13.492   2.464   8.588  0.00  0.00     0.167 HD
ENDBRANCH  35  37
ENDBRANCH  34  35
ENDBRANCH  33  34
ENDBRANCH   6  33
BRANCH  27  39
HETATM   39  C   UNK     0     -17.332  -5.103  16.003  0.00  0.00     0.051 C 
BRANCH  39  40
HETATM   40  C   UNK     0     -16.693  -6.052  15.091  0.00  0.00     0.114 C 
BRANCH  40  41
HETATM   41  C   UNK     0     -16.238  -7.353  15.527  0.00  0.00     0.139 C 
HETATM   42  O   UNK     0     -16.824  -8.031  16.381  0.00  0.00    -0.650 OA
BRANCH  41  43
HETATM   43  O   UNK     0     -15.054  -7.898  14.954  0.00  0.00    -0.776 OA
HETATM   44  H   UNK     0     -14.289  -7.241  14.869  0.00  0.00     0.167 HD
ENDBRANCH  41  43
ENDBRANCH  40  41
ENDBRANCH  39  40
ENDBRANCH  27  39
BRANCH  11  45
HETATM   45  C   UNK     0      -8.988  -0.016  19.140  0.00  0.00     0.051 C 
BRANCH  45  46
HETATM   46  C   UNK     0      -9.773   0.321  20.355  0.00  0.00     0.114 C 
BRANCH  46  47
HETATM   47  C   UNK     0      -8.851   0.207  21.521  0.00  0.00     0.139 C 
HETATM   48  O   UNK     0      -8.830  -0.856  22.158  0.00  0.00    -0.650 OA
BRANCH  47  49
HETATM   49  O   UNK     0      -8.042   1.255  21.884  0.00  0.00    -0.776 OA
HETATM   50  H   UNK     0      -7.364   1.180  22.651  0.00  0.00     0.167 HD
ENDBRANCH  47  49
ENDBRANCH  46  47
ENDBRANCH  45  46
ENDBRANCH  11  45
BRANCH  18  51
HETATM   51  C   UNK     0     -14.430  -3.857  21.236  0.00  0.00     0.051 C 
BRANCH  51  52
HETATM   52  C   UNK     0     -14.360  -5.361  21.457  0.00  0.00     0.114 C 
BRANCH  52  53
HETATM   53  C   UNK     0     -15.702  -5.972  21.504  0.00  0.00     0.139 C 
HETATM   54  O   UNK     0     -16.710  -5.275  21.306  0.00  0.00    -0.650 OA
BRANCH  53  55
HETATM   55  O   UNK     0     -15.829  -7.314  21.772  0.00  0.00    -0.776 OA
HETATM   56  H   UNK     0     -15.722  -8.052  21.117  0.00  0.00     0.167 HD
ENDBRANCH  53  55
ENDBRANCH  52  53
ENDBRANCH  51  52
ENDBRANCH  18  51
TORSDOF 16
ENDMDL
MODEL 6
REMARK VINA RESULT:      -8.0      6.394     11.321
REMARK  16 active torsions:
REMARK  status: ('A' for Active; 'I' for Inactive)
REMARK    1  A    between atoms: C_6  and  C_7 
REMARK    2  A    between atoms: C_7  and  C_8 
REMARK    3  A    between atoms: C_8  and  C_9 
REMARK    4  A    between atoms: C_9  and  O_11 
REMARK    5  A    between atoms: C_16  and  C_17 
REMARK    6  A    between atoms: C_17  and  C_18 
REMARK    7  A    between atoms: C_18  and  C_19 
REMARK    8  A    between atoms: C_19  and  O_21 
REMARK    9  A    between atoms: C_28  and  C_29 
REMARK   10  A    between atoms: C_29  and  C_30 
REMARK   11  A    between atoms: C_30  and  C_31 
REMARK   12  A    between atoms: C_31  and  O_33 
REMARK   13  A    between atoms: C_42  and  C_43 
REMARK   14  A    between atoms: C_43  and  C_44 
REMARK   15  A    between atoms: C_44  and  C_45 
REMARK   16  A    between atoms: C_45  and  O_47 
ROOT
HETATM    1  C   UNK     0     -33.585   1.655  -0.036  0.00  0.00     0.051 C 
HETATM    2  C   UNK     0     -32.276   2.017   0.636  0.00  0.00    -0.031 A 
HETATM    3  C   UNK     0     -31.987   2.150   1.985  0.00  0.00     0.021 A 
HETATM    4  N   UNK     0     -30.691   2.519   2.125  0.00  0.00    -0.361 N 
HETATM    5  C   UNK     0     -30.146   2.616   0.894  0.00  0.00     0.022 A 
HETATM    6  C   UNK     0     -31.111   2.311  -0.060  0.00  0.00    -0.027 A 
HETATM    7  C   UNK     0     -28.730   2.898   0.500  0.00  0.00     0.115 C 
HETATM    8  C   UNK     0     -27.647   2.199   1.303  0.00  0.00     0.021 A 
HETATM    9  N   UNK     0     -27.663   0.967   1.835  0.00  0.00    -0.361 N 
HETATM   10  C   UNK     0     -26.526   0.801   2.542  0.00  0.00     0.022 A 
HETATM   11  C   UNK     0     -25.751   1.954   2.456  0.00  0.00    -0.027 A 
HETATM   12  C   UNK     0     -26.451   2.839   1.677  0.00  0.00    -0.031 A 
HETATM   13  C   UNK     0     -25.991   4.230   1.305  0.00  0.00     0.051 C 
HETATM   14  C   UNK     0     -26.149  -0.426   3.368  0.00  0.00     0.115 C 
HETATM   15  C   UNK     0     -27.118  -0.728   4.500  0.00  0.00     0.021 A 
HETATM   16  N   UNK     0     -28.438  -0.976   4.408  0.00  0.00    -0.361 N 
HETATM   17  C   UNK     0     -28.944  -1.122   5.634  0.00  0.00     0.022 A 
HETATM   18  C   UNK     0     -27.902  -0.972   6.571  0.00  0.00    -0.027 A 
HETATM   19  C   UNK     0     -26.763  -0.726   5.848  0.00  0.00    -0.031 A 
HETATM   20  C   UNK     0     -25.392  -0.537   6.470  0.00  0.00     0.051 C 
HETATM   21  C   UNK     0     -30.373  -1.341   6.077  0.00  0.00     0.115 C 
HETATM   22  C   UNK     0     -31.464  -0.688   5.261  0.00  0.00     0.022 A 
HETATM   23  N   UNK     0     -31.472   0.536   4.715  0.00  0.00    -0.361 N 
HETATM   24  C   UNK     0     -32.578   0.651   3.952  0.00  0.00     0.021 A 
HETATM   25  C   UNK     0     -33.304  -0.523   4.015  0.00  0.00    -0.031 A 
HETATM   26  C   UNK     0     -34.629  -0.860   3.365  0.00  0.00     0.051 C 
HETATM   27  C   UNK     0     -32.611  -1.395   4.847  0.00  0.00    -0.027 A 
HETATM   28  C   UNK     0     -32.977   1.818   3.065  0.00  0.00     0.115 C 
HETATM   29  H   UNK     0     -30.182   2.747   3.090  0.00  0.00     0.165 HD
HETATM   30  H   UNK     0     -28.454   0.194   1.672  0.00  0.00     0.165 HD
HETATM   31  H   UNK     0     -29.017  -1.098   3.455  0.00  0.00     0.165 HD
HETATM   32  H   UNK     0     -30.720   1.346   4.899  0.00  0.00     0.165 HD
ENDROOT
BRANCH   6  33
HETATM   33  C   UNK     0     -31.011   2.281  -1.564  0.00  0.00     0.051 C 
BRANCH  33  34
HETATM   34  C   UNK     0     -31.279   3.649  -2.146  0.00  0.00     0.114 C 
BRANCH  34  35
HETATM   35  C   UNK     0     -30.908   3.601  -3.589  0.00  0.00     0.139 C 
HETATM   36  O   UNK     0     -31.742   3.953  -4.474  0.00  0.00    -0.650 OA
BRANCH  35  37
HETATM   37  O   UNK     0     -29.658   3.180  -4.028  0.00  0.00    -0.776 OA
HETATM   38  H   UNK     0     -29.531   2.718  -4.914  0.00  0.00     0.167 HD
ENDBRANCH  35  37
ENDBRANCH  34  35
ENDBRANCH  33  34
ENDBRANCH   6  33
BRANCH  27  39
HETATM   39  C   UNK     0     -33.123  -2.743   5.215  0.00  0.00     0.051 C 
BRANCH  39  40
HETATM   40  C   UNK     0     -32.431  -3.917   4.683  0.00  0.00     0.114 C 
BRANCH  40  41
HETATM   41  C   UNK     0     -32.681  -5.250   5.183  0.00  0.00     0.139 C 
HETATM   42  O   UNK     0     -32.830  -6.238   4.451  0.00  0.00    -0.650 OA
BRANCH  41  43
HETATM   43  O   UNK     0     -32.762  -5.457   6.589  0.00  0.00    -0.776 OA
HETATM   44  H   UNK     0     -32.086  -6.117   6.956  0.00  0.00     0.167 HD
ENDBRANCH  41  43
ENDBRANCH  40  41
ENDBRANCH  39  40
ENDBRANCH  27  39
BRANCH  11  45
HETATM   45  C   UNK     0     -24.405   2.232   3.070  0.00  0.00     0.051 C 
BRANCH  45  46
HETATM   46  C   UNK     0     -24.462   2.630   4.500  0.00  0.00     0.114 C 
BRANCH  46  47
HETATM   47  C   UNK     0     -23.172   2.219   5.124  0.00  0.00     0.139 C 
HETATM   48  O   UNK     0     -23.084   2.224   6.360  0.00  0.00    -0.650 OA
BRANCH  47  49
HETATM   49  O   UNK     0     -22.104   1.844   4.349  0.00  0.00    -0.776 OA
HETATM   50  H   UNK     0     -22.223   1.480   3.396  0.00  0.00     0.167 HD
ENDBRANCH  47  49
ENDBRANCH  46  47
ENDBRANCH  45  46
ENDBRANCH  11  45
BRANCH  18  51
HETATM   51  C   UNK     0     -27.983  -1.077   8.072  0.00  0.00     0.051 C 
BRANCH  51  52
HETATM   52  C   UNK     0     -28.306   0.320   8.580  0.00  0.00     0.114 C 
BRANCH  52  53
HETATM   53  C   UNK     0     -27.590   0.627   9.834  0.00  0.00     0.139 C 
HETATM   54  O   UNK     0     -26.430   0.221  10.002  0.00  0.00    -0.650 OA
BRANCH  53  55
HETATM   55  O   UNK     0     -28.217   1.362  10.811  0.00  0.00    -0.776 OA
HETATM   56  H   UNK     0     -28.374   2.342  10.795  0.00  0.00     0.167 HD
ENDBRANCH  53  55
ENDBRANCH  52  53
ENDBRANCH  51  52
ENDBRANCH  18  51
TORSDOF 16
ENDMDL
MODEL 7
REMARK VINA RESULT:      -8.0     20.319     23.265
REMARK  16 active torsions:
REMARK  status: ('A' for Active; 'I' for Inactive)
REMARK    1  A    between atoms: C_6  and  C_7 
REMARK    2  A    between atoms: C_7  and  C_8 
REMARK    3  A    between atoms: C_8  and  C_9 
REMARK    4  A    between atoms: C_9  and  O_11 
REMARK    5  A    between atoms: C_16  and  C_17 
REMARK    6  A    between atoms: C_17  and  C_18 
REMARK    7  A    between atoms: C_18  and  C_19 
REMARK    8  A    between atoms: C_19  and  O_21 
REMARK    9  A    between atoms: C_28  and  C_29 
REMARK   10  A    between atoms: C_29  and  C_30 
REMARK   11  A    between atoms: C_30  and  C_31 
REMARK   12  A    between atoms: C_31  and  O_33 
REMARK   13  A    between atoms: C_42  and  C_43 
REMARK   14  A    between atoms: C_43  and  C_44 
REMARK   15  A    between atoms: C_44  and  C_45 
REMARK   16  A    between atoms: C_45  and  O_47 
ROOT
HETATM    1  C   UNK     0      -9.545  -0.715  20.136  0.00  0.00     0.051 C 
HETATM    2  C   UNK     0     -10.142  -0.795  18.746  0.00  0.00    -0.031 A 
HETATM    3  C   UNK     0     -10.699  -1.880  18.089  0.00  0.00     0.021 A 
HETATM    4  N   UNK     0     -11.078  -1.497  16.846  0.00  0.00    -0.361 N 
HETATM    5  C   UNK     0     -10.781  -0.189  16.701  0.00  0.00     0.022 A 
HETATM    6  C   UNK     0     -10.192   0.281  17.869  0.00  0.00    -0.027 A 
HETATM    7  C   UNK     0     -11.078   0.732  15.559  0.00  0.00     0.115 C 
HETATM    8  C   UNK     0     -12.456   0.619  14.932  0.00  0.00     0.021 A 
HETATM    9  N   UNK     0     -13.628   0.353  15.530  0.00  0.00    -0.361 N 
HETATM   10  C   UNK     0     -14.575   0.258  14.573  0.00  0.00     0.022 A 
HETATM   11  C   UNK     0     -13.999   0.477  13.325  0.00  0.00    -0.027 A 
HETATM   12  C   UNK     0     -12.665   0.706  13.544  0.00  0.00    -0.031 A 
HETATM   13  C   UNK     0     -11.640   0.998  12.470  0.00  0.00     0.051 C 
HETATM   14  C   UNK     0     -16.043  -0.096  14.790  0.00  0.00     0.115 C 
HETATM   15  C   UNK     0     -16.262  -1.468  15.406  0.00  0.00     0.021 A 
HETATM   16  N   UNK     0     -15.795  -1.924  16.583  0.00  0.00    -0.361 N 
HETATM   17  C   UNK     0     -16.148  -3.203  16.729  0.00  0.00     0.022 A 
HETATM   18  C   UNK     0     -16.889  -3.597  15.597  0.00  0.00    -0.027 A 
HETATM   19  C   UNK     0     -16.954  -2.501  14.776  0.00  0.00    -0.031 A 
HETATM   20  C   UNK     0     -17.698  -2.480  13.454  0.00  0.00     0.051 C 
HETATM   21  C   UNK     0     -15.814  -4.184  17.831  0.00  0.00     0.115 C 
HETATM   22  C   UNK     0     -14.463  -4.055  18.494  0.00  0.00     0.022 A 
HETATM   23  N   UNK     0     -13.281  -3.787  17.924  0.00  0.00    -0.361 N 
HETATM   24  C   UNK     0     -12.368  -3.619  18.901  0.00  0.00     0.021 A 
HETATM   25  C   UNK     0     -12.974  -3.793  20.131  0.00  0.00    -0.031 A 
HETATM   26  C   UNK     0     -12.358  -3.744  21.513  0.00  0.00     0.051 C 
HETATM   27  C   UNK     0     -14.316  -4.073  19.895  0.00  0.00    -0.027 A 
HETATM   28  C   UNK     0     -10.912  -3.211  18.754  0.00  0.00     0.115 C 
HETATM   29  H   UNK     0     -11.515  -2.163  16.067  0.00  0.00     0.165 HD
HETATM   30  H   UNK     0     -13.799   0.282  16.632  0.00  0.00     0.165 HD
HETATM   31  H   UNK     0     -15.245  -1.318  17.349  0.00  0.00     0.165 HD
HETATM   32  H   UNK     0     -13.071  -3.756  16.823  0.00  0.00     0.165 HD
ENDROOT
BRANCH   6  33
HETATM   33  C   UNK     0      -9.678   1.657  18.211  0.00  0.00     0.051 C 
BRANCH  33  34
HETATM   34  C   UNK     0      -8.298   1.871  17.633  0.00  0.00     0.114 C 
BRANCH  34  35
HETATM   35  C   UNK     0      -7.341   1.932  18.775  0.00  0.00     0.139 C 
HETATM   36  O   UNK     0      -7.748   2.242  19.932  0.00  0.00    -0.650 OA
BRANCH  35  37
HETATM   37  O   UNK     0      -5.987   1.656  18.632  0.00  0.00    -0.776 OA
HETATM   38  H   UNK     0      -5.319   2.369  18.386  0.00  0.00     0.167 HD
ENDBRANCH  35  37
ENDBRANCH  34  35
ENDBRANCH  33  34
ENDBRANCH   6  33
BRANCH  27  39
HETATM   39  C   UNK     0     -15.280  -4.393  20.983  0.00  0.00     0.051 C 
BRANCH  39  40
HETATM   40  C   UNK     0     -16.244  -3.367  21.379  0.00  0.00     0.114 C 
BRANCH  40  41
HETATM   41  C   UNK     0     -16.073  -1.974  21.032  0.00  0.00     0.139 C 
HETATM   42  O   UNK     0     -15.450  -1.166  21.734  0.00  0.00    -0.650 OA
BRANCH  41  43
HETATM   43  O   UNK     0     -16.646  -1.487  19.823  0.00  0.00    -0.776 OA
HETATM   44  H   UNK     0     -16.373  -0.543  19.580  0.00  0.00     0.167 HD
ENDBRANCH  41  43
ENDBRANCH  40  41
ENDBRANCH  39  40
ENDBRANCH  27  39
BRANCH  11  45
HETATM   45  C   UNK     0     -14.657   0.479  11.971  0.00  0.00     0.051 C 
BRANCH  45  46
HETATM   46  C   UNK     0     -15.508   1.669  11.713  0.00  0.00     0.114 C 
BRANCH  46  47
HETATM   47  C   UNK     0     -14.957   2.353  10.508  0.00  0.00     0.139 C 
HETATM   48  O   UNK     0     -13.930   3.035  10.633  0.00  0.00    -0.650 OA
BRANCH  47  49
HETATM   49  O   UNK     0     -15.573   2.232   9.288  0.00  0.00    -0.776 OA
HETATM   50  H   UNK     0     -16.595   2.232   9.191  0.00  0.00     0.167 HD
ENDBRANCH  47  49
ENDBRANCH  46  47
ENDBRANCH  45  46
ENDBRANCH  11  45
BRANCH  18  51
HETATM   51  C   UNK     0     -17.518  -4.938  15.322  0.00  0.00     0.051 C 
BRANCH  51  52
HETATM   52  C   UNK     0     -16.599  -5.647  14.338  0.00  0.00     0.114 C 
BRANCH  52  53
HETATM   53  C   UNK     0     -16.435  -7.075  14.670  0.00  0.00     0.139 C 
HETATM   54  O   UNK     0     -17.243  -7.911  14.236  0.00  0.00    -0.650 OA
BRANCH  53  55
HETATM   55  O   UNK     0     -15.386  -7.472  15.464  0.00  0.00    -0.776 OA
HETATM   56  H   UNK     0     -14.913  -6.910  16.132  0.00  0.00     0.167 HD
ENDBRANCH  53  55
ENDBRANCH  52  53
ENDBRANCH  51  52
ENDBRANCH  18  51
TORSDOF 16
ENDMDL
MODEL 8
REMARK VINA RESULT:      -8.0     22.594     24.663
REMARK  16 active torsions:
REMARK  status: ('A' for Active; 'I' for Inactive)
REMARK    1  A    between atoms: C_6  and  C_7 
REMARK    2  A    between atoms: C_7  and  C_8 
REMARK    3  A    between atoms: C_8  and  C_9 
REMARK    4  A    between atoms: C_9  and  O_11 
REMARK    5  A    between atoms: C_16  and  C_17 
REMARK    6  A    between atoms: C_17  and  C_18 
REMARK    7  A    between atoms: C_18  and  C_19 
REMARK    8  A    between atoms: C_19  and  O_21 
REMARK    9  A    between atoms: C_28  and  C_29 
REMARK   10  A    between atoms: C_29  and  C_30 
REMARK   11  A    between atoms: C_30  and  C_31 
REMARK   12  A    between atoms: C_31  and  O_33 
REMARK   13  A    between atoms: C_42  and  C_43 
REMARK   14  A    between atoms: C_43  and  C_44 
REMARK   15  A    between atoms: C_44  and  C_45 
REMARK   16  A    between atoms: C_45  and  O_47 
ROOT
HETATM    1  C   UNK     0     -14.040   5.334   9.064  0.00  0.00     0.051 C 
HETATM    2  C   UNK     0     -13.053   4.637   9.977  0.00  0.00    -0.031 A 
HETATM    3  C   UNK     0     -11.902   5.131  10.571  0.00  0.00     0.021 A 
HETATM    4  N   UNK     0     -11.312   4.142  11.282  0.00  0.00    -0.361 N 
HETATM    5  C   UNK     0     -12.067   3.030  11.163  0.00  0.00     0.022 A 
HETATM    6  C   UNK     0     -13.162   3.303  10.351  0.00  0.00    -0.027 A 
HETATM    7  C   UNK     0     -11.908   1.696  11.824  0.00  0.00     0.115 C 
HETATM    8  C   UNK     0     -11.539   1.705  13.297  0.00  0.00     0.021 A 
HETATM    9  N   UNK     0     -11.924   2.567  14.250  0.00  0.00    -0.361 N 
HETATM   10  C   UNK     0     -11.279   2.246  15.391  0.00  0.00     0.022 A 
HETATM   11  C   UNK     0     -10.462   1.141  15.169  0.00  0.00    -0.027 A 
HETATM   12  C   UNK     0     -10.622   0.795  13.852  0.00  0.00    -0.031 A 
HETATM   13  C   UNK     0      -9.929  -0.358  13.161  0.00  0.00     0.051 C 
HETATM   14  C   UNK     0     -11.364   2.997  16.717  0.00  0.00     0.115 C 
HETATM   15  C   UNK     0     -10.895   4.441  16.638  0.00  0.00     0.021 A 
HETATM   16  N   UNK     0     -11.378   5.420  15.850  0.00  0.00    -0.361 N 
HETATM   17  C   UNK     0     -10.650   6.525  16.027  0.00  0.00     0.022 A 
HETATM   18  C   UNK     0      -9.651   6.256  16.984  0.00  0.00    -0.027 A 
HETATM   19  C   UNK     0      -9.816   4.948  17.360  0.00  0.00    -0.031 A 
HETATM   20  C   UNK     0      -8.963   4.257  18.408  0.00  0.00     0.051 C 
HETATM   21  C   UNK     0     -10.735   7.866  15.334  0.00  0.00     0.115 C 
HETATM   22  C   UNK     0     -11.145   7.875  13.880  0.00  0.00     0.022 A 
HETATM   23  N   UNK     0     -10.780   7.027  12.910  0.00  0.00    -0.361 N 
HETATM   24  C   UNK     0     -11.493   7.317  11.803  0.00  0.00     0.021 A 
HETATM   25  C   UNK     0     -12.331   8.385  12.065  0.00  0.00    -0.031 A 
HETATM   26  C   UNK     0     -13.289   9.096  11.131  0.00  0.00     0.051 C 
HETATM   27  C   UNK     0     -12.125   8.760  13.387  0.00  0.00    -0.027 A 
HETATM   28  C   UNK     0     -11.497   6.575  10.478  0.00  0.00     0.115 C 
HETATM   29  H   UNK     0     -10.346   4.225  11.832  0.00  0.00     0.165 HD
HETATM   30  H   UNK     0     -12.690   3.373  14.134  0.00  0.00     0.165 HD
HETATM   31  H   UNK     0     -12.281   5.344  15.190  0.00  0.00     0.165 HD
HETATM   32  H   UNK     0      -9.983   6.242  12.984  0.00  0.00     0.165 HD
ENDROOT
BRANCH   6  33
HETATM   33  C   UNK     0     -14.289   2.405   9.906  0.00  0.00     0.051 C 
BRANCH  33  34
HETATM   34  C   UNK     0     -15.466   2.518  10.846  0.00  0.00     0.114 C 
BRANCH  34  35
HETATM   35  C   UNK     0     -15.425   1.337  11.756  0.00  0.00     0.139 C 
HETATM   36  O   UNK     0     -15.270   1.498  13.001  0.00  0.00    -0.650 OA
BRANCH  35  37
HETATM   37  O   UNK     0     -15.555   0.032  11.296  0.00  0.00    -0.776 OA
HETATM   38  H   UNK     0     -15.177  -0.263  10.410  0.00  0.00     0.167 HD
ENDBRANCH  35  37
ENDBRANCH  34  35
ENDBRANCH  33  34
ENDBRANCH   6  33
BRANCH  27  39
HETATM   39  C   UNK     0     -12.803   9.927  14.014  0.00  0.00     0.051 C 
BRANCH  39  40
HETATM   40  C   UNK     0     -12.196  11.249  13.857  0.00  0.00     0.114 C 
BRANCH  40  41
HETATM   41  C   UNK     0     -12.533  12.126  12.758  0.00  0.00     0.139 C 
HETATM   42  O   UNK     0     -11.690  12.639  12.010  0.00  0.00    -0.650 OA
BRANCH  41  43
HETATM   43  O   UNK     0     -13.902  12.426  12.509  0.00  0.00    -0.776 OA
HETATM   44  H   UNK     0     -14.545  11.680  12.747  0.00  0.00     0.167 HD
ENDBRANCH  41  43
ENDBRANCH  40  41
ENDBRANCH  39  40
ENDBRANCH  27  39
BRANCH  11  45
HETATM   45  C   UNK     0      -9.565   0.423  16.141  0.00  0.00     0.051 C 
BRANCH  45  46
HETATM   46  C   UNK     0     -10.280  -0.186  17.291  0.00  0.00     0.114 C 
BRANCH  46  47
HETATM   47  C   UNK     0     -10.793  -1.512  16.841  0.00  0.00     0.139 C 
HETATM   48  O   UNK     0     -12.017  -1.668  16.734  0.00  0.00    -0.650 OA
BRANCH  47  49
HETATM   49  O   UNK     0      -9.929  -2.538  16.552  0.00  0.00    -0.776 OA
HETATM   50  H   UNK     0      -9.560  -2.690  15.606  0.00  0.00     0.167 HD
ENDBRANCH  47  49
ENDBRANCH  46  47
ENDBRANCH  45  46
ENDBRANCH  11  45
BRANCH  18  51
HETATM   51  C   UNK     0      -8.609   7.200  17.526  0.00  0.00     0.051 C 
BRANCH  51  52
HETATM   52  C   UNK     0      -7.297   6.814  16.860  0.00  0.00     0.114 C 
BRANCH  52  53
HETATM   53  C   UNK     0      -6.858   7.827  15.881  0.00  0.00     0.139 C 
HETATM   54  O   UNK     0      -7.444   8.919  15.812  0.00  0.00    -0.650 OA
BRANCH  53  55
HETATM   55  O   UNK     0      -5.802   7.553  15.047  0.00  0.00    -0.776 OA
HETATM   56  H   UNK     0      -5.649   7.948  14.149  0.00  0.00     0.167 HD
ENDBRANCH  53  55
ENDBRANCH  52  53
ENDBRANCH  51  52
ENDBRANCH  18  51
TORSDOF 16
ENDMDL
MODEL 9
REMARK VINA RESULT:      -8.0      2.455      8.657
REMARK  16 active torsions:
REMARK  status: ('A' for Active; 'I' for Inactive)
REMARK    1  A    between atoms: C_6  and  C_7 
REMARK    2  A    between atoms: C_7  and  C_8 
REMARK    3  A    between atoms: C_8  and  C_9 
REMARK    4  A    between atoms: C_9  and  O_11 
REMARK    5  A    between atoms: C_16  and  C_17 
REMARK    6  A    between atoms: C_17  and  C_18 
REMARK    7  A    between atoms: C_18  and  C_19 
REMARK    8  A    between atoms: C_19  and  O_21 
REMARK    9  A    between atoms: C_28  and  C_29 
REMARK   10  A    between atoms: C_29  and  C_30 
REMARK   11  A    between atoms: C_30  and  C_31 
REMARK   12  A    between atoms: C_31  and  O_33 
REMARK   13  A    between atoms: C_42  and  C_43 
REMARK   14  A    between atoms: C_43  and  C_44 
REMARK   15  A    between atoms: C_44  and  C_45 
REMARK   16  A    between atoms: C_45  and  O_47 
ROOT
HETATM    1  C   UNK     0     -31.139  -2.145   4.634  0.00  0.00     0.051 C 
HETATM    2  C   UNK     0     -31.981  -2.774   5.726  0.00  0.00    -0.031 A 
HETATM    3  C   UNK     0     -32.606  -4.011   5.752  0.00  0.00     0.021 A 
HETATM    4  N   UNK     0     -33.278  -4.141   6.921  0.00  0.00    -0.361 N 
HETATM    5  C   UNK     0     -33.088  -3.017   7.643  0.00  0.00     0.022 A 
HETATM    6  C   UNK     0     -32.284  -2.139   6.924  0.00  0.00    -0.027 A 
HETATM    7  C   UNK     0     -33.534  -2.693   9.035  0.00  0.00     0.115 C 
HETATM    8  C   UNK     0     -33.393  -3.796  10.069  0.00  0.00     0.021 A 
HETATM    9  N   UNK     0     -32.430  -4.724  10.177  0.00  0.00    -0.361 N 
HETATM   10  C   UNK     0     -32.759  -5.555  11.188  0.00  0.00     0.022 A 
HETATM   11  C   UNK     0     -33.963  -5.146  11.753  0.00  0.00    -0.027 A 
HETATM   12  C   UNK     0     -34.368  -4.038  11.054  0.00  0.00    -0.031 A 
HETATM   13  C   UNK     0     -35.629  -3.248  11.322  0.00  0.00     0.051 C 
HETATM   14  C   UNK     0     -31.983  -6.795  11.625  0.00  0.00     0.115 C 
HETATM   15  C   UNK     0     -31.859  -7.856  10.544  0.00  0.00     0.021 A 
HETATM   16  N   UNK     0     -31.307  -7.725   9.323  0.00  0.00    -0.361 N 
HETATM   17  C   UNK     0     -31.459  -8.867   8.648  0.00  0.00     0.022 A 
HETATM   18  C   UNK     0     -32.133  -9.790   9.473  0.00  0.00    -0.027 A 
HETATM   19  C   UNK     0     -32.377  -9.145  10.658  0.00  0.00    -0.031 A 
HETATM   20  C   UNK     0     -33.057  -9.796  11.848  0.00  0.00     0.051 C 
HETATM   21  C   UNK     0     -31.084  -9.212   7.225  0.00  0.00     0.115 C 
HETATM   22  C   UNK     0     -31.177  -8.112   6.193  0.00  0.00     0.022 A 
HETATM   23  N   UNK     0     -32.123  -7.172   6.065  0.00  0.00    -0.361 N 
HETATM   24  C   UNK     0     -31.735  -6.310   5.103  0.00  0.00     0.021 A 
HETATM   25  C   UNK     0     -30.516  -6.710   4.593  0.00  0.00    -0.031 A 
HETATM   26  C   UNK     0     -29.700  -6.091   3.477  0.00  0.00     0.051 C 
HETATM   27  C   UNK     0     -30.138  -7.862   5.274  0.00  0.00    -0.027 A 
HETATM   28  C   UNK     0     -32.431  -5.033   4.665  0.00  0.00     0.115 C 
HETATM   29  H   UNK     0     -33.914  -5.009   7.210  0.00  0.00     0.165 HD
HETATM   30  H   UNK     0     -31.490  -4.766   9.572  0.00  0.00     0.165 HD
HETATM   31  H   UNK     0     -30.757  -6.824   8.946  0.00  0.00     0.165 HD
HETATM   32  H   UNK     0     -33.095  -7.133   6.623  0.00  0.00     0.165 HD
ENDROOT
BRANCH   6  33
HETATM   33  C   UNK     0     -31.789  -0.761   7.283  0.00  0.00     0.051 C 
BRANCH  33  34
HETATM   34  C   UNK     0     -32.698   0.300   6.708  0.00  0.00     0.114 C 
BRANCH  34  35
HETATM   35  C   UNK     0     -33.714   0.629   7.748  0.00  0.00     0.139 C 
HETATM   36  O   UNK     0     -33.362   1.182   8.830  0.00  0.00    -0.650 OA
BRANCH  35  37
HETATM   37  O   UNK     0     -35.067   0.355   7.587  0.00  0.00    -0.776 OA
HETATM   38  H   UNK     0     -35.704   0.330   8.366  0.00  0.00     0.167 HD
ENDBRANCH  35  37
ENDBRANCH  34  35
ENDBRANCH  33  34
ENDBRANCH   6  33
BRANCH  27  39
HETATM   39  C   UNK     0     -28.905  -8.628   4.949  0.00  0.00     0.051 C 
BRANCH  39  40
HETATM   40  C   UNK     0     -29.044  -9.894   4.229  0.00  0.00     0.114 C 
BRANCH  40  41
HETATM   41  C   UNK     0     -28.147 -11.007   4.446  0.00  0.00     0.139 C 
HETATM   42  O   UNK     0     -28.288 -11.830   5.360  0.00  0.00    -0.650 OA
BRANCH  41  43
HETATM   43  O   UNK     0     -27.037 -11.181   3.571  0.00  0.00    -0.776 OA
HETATM   44  H   UNK     0     -26.249 -10.577   3.769  0.00  0.00     0.167 HD
ENDBRANCH  41  43
ENDBRANCH  40  41
ENDBRANCH  39  40
ENDBRANCH  27  39
BRANCH  11  45
HETATM   45  C   UNK     0     -34.717  -5.755  12.905  0.00  0.00     0.051 C 
BRANCH  45  46
HETATM   46  C   UNK     0     -36.082  -5.200  13.096  0.00  0.00     0.114 C 
BRANCH  46  47
HETATM   47  C   UNK     0     -37.049  -6.299  12.812  0.00  0.00     0.139 C 
HETATM   48  O   UNK     0     -37.966  -6.087  12.007  0.00  0.00    -0.650 OA
BRANCH  47  49
HETATM   49  O   UNK     0     -36.927  -7.519  13.428  0.00  0.00    -0.776 OA
HETATM   50  H   UNK     0     -37.268  -8.385  12.994  0.00  0.00     0.167 HD
ENDBRANCH  47  49
ENDBRANCH  46  47
ENDBRANCH  45  46
ENDBRANCH  11  45
BRANCH  18  51
HETATM   51  C   UNK     0     -32.506 -11.215   9.156  0.00  0.00     0.051 C 
BRANCH  51  52
HETATM   52  C   UNK     0     -32.669 -11.920  10.494  0.00  0.00     0.114 C 
BRANCH  52  53
HETATM   53  C   UNK     0     -31.482 -12.726  10.839  0.00  0.00     0.139 C 
HETATM   54  O   UNK     0     -30.357 -12.202  10.850  0.00  0.00    -0.650 OA
BRANCH  53  55
HETATM   55  O   UNK     0     -31.630 -14.057  11.144  0.00  0.00    -0.776 OA
HETATM   56  H   UNK     0     -30.894 -14.705  11.303  0.00  0.00     0.167 HD
ENDBRANCH  53  55
ENDBRANCH  52  53
ENDBRANCH  51  52
ENDBRANCH  18  51
TORSDOF 16
ENDMDL
MODEL 10
REMARK VINA RESULT:      -7.9     20.360     23.490
REMARK  16 active torsions:
REMARK  status: ('A' for Active; 'I' for Inactive)
REMARK    1  A    between atoms: C_6  and  C_7 
REMARK    2  A    between atoms: C_7  and  C_8 
REMARK    3  A    between atoms: C_8  and  C_9 
REMARK    4  A    between atoms: C_9  and  O_11 
REMARK    5  A    between atoms: C_16  and  C_17 
REMARK    6  A    between atoms: C_17  and  C_18 
REMARK    7  A    between atoms: C_18  and  C_19 
REMARK    8  A    between atoms: C_19  and  O_21 
REMARK    9  A    between atoms: C_28  and  C_29 
REMARK   10  A    between atoms: C_29  and  C_30 
REMARK   11  A    between atoms: C_30  and  C_31 
REMARK   12  A    between atoms: C_31  and  O_33 
REMARK   13  A    between atoms: C_42  and  C_43 
REMARK   14  A    between atoms: C_43  and  C_44 
REMARK   15  A    between atoms: C_44  and  C_45 
REMARK   16  A    between atoms: C_45  and  O_47 
ROOT
HETATM    1  C   UNK     0      -9.498  -0.705  20.156  0.00  0.00     0.051 C 
HETATM    2  C   UNK     0     -10.099  -0.800  18.768  0.00  0.00    -0.031 A 
HETATM    3  C   UNK     0     -10.667  -1.890  18.128  0.00  0.00     0.021 A 
HETATM    4  N   UNK     0     -11.046  -1.522  16.881  0.00  0.00    -0.361 N 
HETATM    5  C   UNK     0     -10.740  -0.218  16.716  0.00  0.00     0.022 A 
HETATM    6  C   UNK     0     -10.144   0.264  17.876  0.00  0.00    -0.027 A 
HETATM    7  C   UNK     0     -11.033   0.689  15.562  0.00  0.00     0.115 C 
HETATM    8  C   UNK     0     -12.414   0.577  14.940  0.00  0.00     0.021 A 
HETATM    9  N   UNK     0     -13.585   0.329  15.545  0.00  0.00    -0.361 N 
HETATM   10  C   UNK     0     -14.536   0.226  14.592  0.00  0.00     0.022 A 
HETATM   11  C   UNK     0     -13.962   0.424  13.340  0.00  0.00    -0.027 A 
HETATM   12  C   UNK     0     -12.625   0.645  13.552  0.00  0.00    -0.031 A 
HETATM   13  C   UNK     0     -11.602   0.915  12.472  0.00  0.00     0.051 C 
HETATM   14  C   UNK     0     -16.006  -0.113  14.818  0.00  0.00     0.115 C 
HETATM   15  C   UNK     0     -16.233  -1.475  15.454  0.00  0.00     0.021 A 
HETATM   16  N   UNK     0     -15.766  -1.918  16.637  0.00  0.00    -0.361 N 
HETATM   17  C   UNK     0     -16.128  -3.192  16.802  0.00  0.00     0.022 A 
HETATM   18  C   UNK     0     -16.875  -3.596  15.678  0.00  0.00    -0.027 A 
HETATM   19  C   UNK     0     -16.935  -2.512  14.842  0.00  0.00    -0.031 A 
HETATM   20  C   UNK     0     -17.682  -2.504  13.521  0.00  0.00     0.051 C 
HETATM   21  C   UNK     0     -15.799  -4.159  17.916  0.00  0.00     0.115 C 
HETATM   22  C   UNK     0     -14.445  -4.031  18.574  0.00  0.00     0.022 A 
HETATM   23  N   UNK     0     -13.263  -3.779  17.997  0.00  0.00    -0.361 N 
HETATM   24  C   UNK     0     -12.346  -3.604  18.970  0.00  0.00     0.021 A 
HETATM   25  C   UNK     0     -12.950  -3.757  20.203  0.00  0.00    -0.031 A 
HETATM   26  C   UNK     0     -12.329  -3.693  21.583  0.00  0.00     0.051 C 
HETATM   27  C   UNK     0     -14.294  -4.030  19.976  0.00  0.00    -0.027 A 
HETATM   28  C   UNK     0     -10.887  -3.210  18.812  0.00  0.00     0.115 C 
HETATM   29  H   UNK     0     -11.490  -2.196  16.113  0.00  0.00     0.165 HD
HETATM   30  H   UNK     0     -13.754   0.274  16.649  0.00  0.00     0.165 HD
HETATM   31  H   UNK     0     -15.210  -1.305  17.393  0.00  0.00     0.165 HD
HETATM   32  H   UNK     0     -13.055  -3.766  16.896  0.00  0.00     0.165 HD
ENDROOT
BRANCH   6  33
HETATM   33  C   UNK     0      -9.618   1.640  18.197  0.00  0.00     0.051 C 
BRANCH  33  34
HETATM   34  C   UNK     0      -8.234   1.832  17.623  0.00  0.00     0.114 C 
BRANCH  34  35
HETATM   35  C   UNK     0      -7.289   1.959  18.770  0.00  0.00     0.139 C 
HETATM   36  O   UNK     0      -7.703   2.367  19.894  0.00  0.00    -0.650 OA
BRANCH  35  37
HETATM   37  O   UNK     0      -5.940   1.642  18.667  0.00  0.00    -0.776 OA
HETATM   38  H   UNK     0      -5.497   1.473  17.779  0.00  0.00     0.167 HD
ENDBRANCH  35  37
ENDBRANCH  34  35
ENDBRANCH  33  34
ENDBRANCH   6  33
BRANCH  27  39
HETATM   39  C   UNK     0     -15.257  -4.327  21.070  0.00  0.00     0.051 C 
BRANCH  39  40
HETATM   40  C   UNK     0     -15.890  -5.645  21.100  0.00  0.00     0.114 C 
BRANCH  40  41
HETATM   41  C   UNK     0     -15.274  -6.781  21.747  0.00  0.00     0.139 C 
HETATM   42  O   UNK     0     -14.192  -6.723  22.346  0.00  0.00    -0.650 OA
BRANCH  41  43
HETATM   43  O   UNK     0     -15.934  -8.042  21.705  0.00  0.00    -0.776 OA
HETATM   44  H   UNK     0     -15.663  -8.682  22.442  0.00  0.00     0.167 HD
ENDBRANCH  41  43
ENDBRANCH  40  41
ENDBRANCH  39  40
ENDBRANCH  27  39
BRANCH  11  45
HETATM   45  C   UNK     0     -14.624   0.411  11.988  0.00  0.00     0.051 C 
BRANCH  45  46
HETATM   46  C   UNK     0     -15.492   1.588  11.728  0.00  0.00     0.114 C 
BRANCH  46  47
HETATM   47  C   UNK     0     -14.927   2.301  10.546  0.00  0.00     0.139 C 
HETATM   48  O   UNK     0     -13.888   2.960  10.693  0.00  0.00    -0.650 OA
BRANCH  47  49
HETATM   49  O   UNK     0     -15.543   2.231   9.322  0.00  0.00    -0.776 OA
HETATM   50  H   UNK     0     -16.238   1.508   9.102  0.00  0.00     0.167 HD
ENDBRANCH  47  49
ENDBRANCH  46  47
ENDBRANCH  45  46
ENDBRANCH  11  45
BRANCH  18  51
HETATM   51  C   UNK     0     -17.515  -4.936  15.424  0.00  0.00     0.051 C 
BRANCH  51  52
HETATM   52  C   UNK     0     -16.596  -5.671  14.459  0.00  0.00     0.114 C 
BRANCH  52  53
HETATM   53  C   UNK     0     -16.439  -7.092  14.825  0.00  0.00     0.139 C 
HETATM   54  O   UNK     0     -15.463  -7.455  15.501  0.00  0.00    -0.650 OA
BRANCH  53  55
HETATM   55  O   UNK     0     -17.375  -8.008  14.411  0.00  0.00    -0.776 OA
HETATM   56  H   UNK     0     -17.967  -8.546  14.999  0.00  0.00     0.167 HD
ENDBRANCH  53  55
ENDBRANCH  52  53
ENDBRANCH  51  52
ENDBRANCH  18  51
TORSDOF 16
ENDMDL
MODEL 11
REMARK VINA RESULT:      -7.6      5.275     10.214
REMARK  16 active torsions:
REMARK  status: ('A' for Active; 'I' for Inactive)
REMARK    1  A    between atoms: C_6  and  C_7 
REMARK    2  A    between atoms: C_7  and  C_8 
REMARK    3  A    between atoms: C_8  and  C_9 
REMARK    4  A    between atoms: C_9  and  O_11 
REMARK    5  A    between atoms: C_16  and  C_17 
REMARK    6  A    between atoms: C_17  and  C_18 
REMARK    7  A    between atoms: C_18  and  C_19 
REMARK    8  A    between atoms: C_19  and  O_21 
REMARK    9  A    between atoms: C_28  and  C_29 
REMARK   10  A    between atoms: C_29  and  C_30 
REMARK   11  A    between atoms: C_30  and  C_31 
REMARK   12  A    between atoms: C_31  and  O_33 
REMARK   13  A    between atoms: C_42  and  C_43 
REMARK   14  A    between atoms: C_43  and  C_44 
REMARK   15  A    between atoms: C_44  and  C_45 
REMARK   16  A    between atoms: C_45  and  O_47 
ROOT
HETATM    1  C   UNK     0     -36.167   1.544   6.689  0.00  0.00     0.051 C 
HETATM    2  C   UNK     0     -34.862   0.841   6.376  0.00  0.00    -0.031 A 
HETATM    3  C   UNK     0     -34.402   0.336   5.170  0.00  0.00     0.021 A 
HETATM    4  N   UNK     0     -33.191  -0.238   5.365  0.00  0.00    -0.361 N 
HETATM    5  C   UNK     0     -32.865  -0.101   6.667  0.00  0.00     0.022 A 
HETATM    6  C   UNK     0     -33.890   0.567   7.329  0.00  0.00    -0.027 A 
HETATM    7  C   UNK     0     -31.601  -0.476   7.376  0.00  0.00     0.115 C 
HETATM    8  C   UNK     0     -30.299  -0.163   6.660  0.00  0.00     0.021 A 
HETATM    9  N   UNK     0     -30.008   0.887   5.876  0.00  0.00    -0.361 N 
HETATM   10  C   UNK     0     -28.765   0.706   5.380  0.00  0.00     0.022 A 
HETATM   11  C   UNK     0     -28.239  -0.487   5.865  0.00  0.00    -0.027 A 
HETATM   12  C   UNK     0     -29.200  -1.040   6.672  0.00  0.00    -0.031 A 
HETATM   13  C   UNK     0     -29.066  -2.346   7.423  0.00  0.00     0.051 C 
HETATM   14  C   UNK     0     -28.049   1.621   4.391  0.00  0.00     0.115 C 
HETATM   15  C   UNK     0     -28.763   1.766   3.057  0.00  0.00     0.021 A 
HETATM   16  N   UNK     0     -30.013   2.216   2.839  0.00  0.00    -0.361 N 
HETATM   17  C   UNK     0     -30.292   2.122   1.537  0.00  0.00     0.022 A 
HETATM   18  C   UNK     0     -29.167   1.595   0.873  0.00  0.00    -0.027 A 
HETATM   19  C   UNK     0     -28.215   1.377   1.836  0.00  0.00    -0.031 A 
HETATM   20  C   UNK     0     -26.825   0.844   1.543  0.00  0.00     0.051 C 
HETATM   21  C   UNK     0     -31.573   2.426   0.793  0.00  0.00     0.115 C 
HETATM   22  C   UNK     0     -32.876   2.161   1.510  0.00  0.00     0.022 A 
HETATM   23  N   UNK     0     -33.193   1.126   2.300  0.00  0.00    -0.361 N 
HETATM   24  C   UNK     0     -34.402   1.365   2.845  0.00  0.00     0.021 A 
HETATM   25  C   UNK     0     -34.881   2.578   2.387  0.00  0.00    -0.031 A 
HETATM   26  C   UNK     0     -36.204   3.253   2.681  0.00  0.00     0.051 C 
HETATM   27  C   UNK     0     -33.921   3.106   1.531  0.00  0.00    -0.027 A 
HETATM   28  C   UNK     0     -35.140   0.527   3.875  0.00  0.00     0.115 C 
HETATM   29  H   UNK     0     -32.593  -0.770   4.590  0.00  0.00     0.165 HD
HETATM   30  H   UNK     0     -30.657   1.781   5.711  0.00  0.00     0.165 HD
HETATM   31  H   UNK     0     -30.696   2.653   3.612  0.00  0.00     0.165 HD
HETATM   32  H   UNK     0     -32.583   0.197   2.447  0.00  0.00     0.165 HD
ENDROOT
BRANCH   6  33
HETATM   33  C   UNK     0     -34.014   0.957   8.780  0.00  0.00     0.051 C 
BRANCH  33  34
HETATM   34  C   UNK     0     -34.516  -0.204   9.605  0.00  0.00     0.114 C 
BRANCH  34  35
HETATM   35  C   UNK     0     -35.781   0.230  10.264  0.00  0.00     0.139 C 
HETATM   36  O   UNK     0     -35.750   0.785  11.401  0.00  0.00    -0.650 OA
BRANCH  35  37
HETATM   37  O   UNK     0     -37.029   0.055   9.679  0.00  0.00    -0.776 OA
HETATM   38  H   UNK     0     -37.830   0.601   9.953  0.00  0.00     0.167 HD
ENDBRANCH  35  37
ENDBRANCH  34  35
ENDBRANCH  33  34
ENDBRANCH   6  33
BRANCH  27  39
HETATM   39  C   UNK     0     -34.114   4.378   0.783  0.00  0.00     0.051 C 
BRANCH  39  40
HETATM   40  C   UNK     0     -34.502   4.304  -0.625  0.00  0.00     0.114 C 
BRANCH  40  41
HETATM   41  C   UNK     0     -35.127   3.130  -1.191  0.00  0.00     0.139 C 
HETATM   42  O   UNK     0     -36.322   2.846  -1.029  0.00  0.00    -0.650 OA
BRANCH  41  43
HETATM   43  O   UNK     0     -34.343   2.242  -1.980  0.00  0.00    -0.776 OA
HETATM   44  H   UNK     0     -33.596   1.781  -1.475  0.00  0.00     0.167 HD
ENDBRANCH  41  43
ENDBRANCH  40  41
ENDBRANCH  39  40
ENDBRANCH  27  39
BRANCH  11  45
HETATM   45  C   UNK     0     -26.891  -1.100   5.595  0.00  0.00     0.051 C 
BRANCH  45  46
HETATM   46  C   UNK     0     -25.770  -0.437   6.309  0.00  0.00     0.114 C 
BRANCH  46  47
HETATM   47  C   UNK     0     -25.528  -1.207   7.563  0.00  0.00     0.139 C 
HETATM   48  O   UNK     0     -26.147  -0.882   8.586  0.00  0.00    -0.650 OA
BRANCH  47  49
HETATM   49  O   UNK     0     -24.639  -2.251   7.585  0.00  0.00    -0.776 OA
HETATM   50  H   UNK     0     -24.481  -2.851   6.767  0.00  0.00     0.167 HD
ENDBRANCH  47  49
ENDBRANCH  46  47
ENDBRANCH  45  46
ENDBRANCH  11  45
BRANCH  18  51
HETATM   51  C   UNK     0     -28.999   1.333  -0.601  0.00  0.00     0.051 C 
BRANCH  51  52
HETATM   52  C   UNK     0     -28.484   2.629  -1.209  0.00  0.00     0.114 C 
BRANCH  52  53
HETATM   53  C   UNK     0     -28.245   2.500  -2.659  0.00  0.00     0.139 C 
HETATM   54  O   UNK     0     -27.882   3.486  -3.320  0.00  0.00    -0.650 OA
BRANCH  53  55
HETATM   55  O   UNK     0     -28.430   1.285  -3.272  0.00  0.00    -0.776 OA
HETATM   56  H   UNK     0     -29.093   0.593  -3.010  0.00  0.00     0.167 HD
ENDBRANCH  53  55
ENDBRANCH  52  53
ENDBRANCH  51  52
ENDBRANCH  18  51
TORSDOF 16
ENDMDL
MODEL 12
REMARK VINA RESULT:      -7.6     22.548     24.691
REMARK  16 active torsions:
REMARK  status: ('A' for Active; 'I' for Inactive)
REMARK    1  A    between atoms: C_6  and  C_7 
REMARK    2  A    between atoms: C_7  and  C_8 
REMARK    3  A    between atoms: C_8  and  C_9 
REMARK    4  A    between atoms: C_9  and  O_11 
REMARK    5  A    between atoms: C_16  and  C_17 
REMARK    6  A    between atoms: C_17  and  C_18 
REMARK    7  A    between atoms: C_18  and  C_19 
REMARK    8  A    between atoms: C_19  and  O_21 
REMARK    9  A    between atoms: C_28  and  C_29 
REMARK   10  A    between atoms: C_29  and  C_30 
REMARK   11  A    between atoms: C_30  and  C_31 
REMARK   12  A    between atoms: C_31  and  O_33 
REMARK   13  A    between atoms: C_42  and  C_43 
REMARK   14  A    between atoms: C_43  and  C_44 
REMARK   15  A    between atoms: C_44  and  C_45 
REMARK   16  A    between atoms: C_45  and  O_47 
ROOT
HETATM    1  C   UNK     0     -14.992   5.628   9.531  0.00  0.00     0.051 C 
HETATM    2  C   UNK     0     -13.900   4.843  10.230  0.00  0.00    -0.031 A 
HETATM    3  C   UNK     0     -12.572   5.178  10.439  0.00  0.00     0.021 A 
HETATM    4  N   UNK     0     -11.956   4.158  11.083  0.00  0.00    -0.361 N 
HETATM    5  C   UNK     0     -12.865   3.184  11.296  0.00  0.00     0.022 A 
HETATM    6  C   UNK     0     -14.091   3.579  10.772  0.00  0.00    -0.027 A 
HETATM    7  C   UNK     0     -12.721   1.896  12.044  0.00  0.00     0.115 C 
HETATM    8  C   UNK     0     -11.961   1.951  13.357  0.00  0.00     0.021 A 
HETATM    9  N   UNK     0     -11.940   2.934  14.270  0.00  0.00    -0.361 N 
HETATM   10  C   UNK     0     -11.056   2.593  15.232  0.00  0.00     0.022 A 
HETATM   11  C   UNK     0     -10.500   1.353  14.935  0.00  0.00    -0.027 A 
HETATM   12  C   UNK     0     -11.066   0.942  13.755  0.00  0.00    -0.031 A 
HETATM   13  C   UNK     0     -10.764  -0.360  13.048  0.00  0.00     0.051 C 
HETATM   14  C   UNK     0     -10.663   3.444  16.437  0.00  0.00     0.115 C 
HETATM   15  C   UNK     0     -10.032   4.778  16.069  0.00  0.00     0.021 A 
HETATM   16  N   UNK     0     -10.570   5.763  15.326  0.00  0.00    -0.361 N 
HETATM   17  C   UNK     0      -9.671   6.739  15.176  0.00  0.00     0.022 A 
HETATM   18  C   UNK     0      -8.495   6.376  15.862  0.00  0.00    -0.027 A 
HETATM   19  C   UNK     0      -8.735   5.146  16.418  0.00  0.00    -0.031 A 
HETATM   20  C   UNK     0      -7.733   4.401  17.281  0.00  0.00     0.051 C 
HETATM   21  C   UNK     0      -9.752   8.020  14.377  0.00  0.00     0.115 C 
HETATM   22  C   UNK     0     -10.543   7.991  13.090  0.00  0.00     0.022 A 
HETATM   23  N   UNK     0     -10.586   7.024  12.164  0.00  0.00    -0.361 N 
HETATM   24  C   UNK     0     -11.529   7.348  11.257  0.00  0.00     0.021 A 
HETATM   25  C   UNK     0     -12.100   8.559  11.601  0.00  0.00    -0.031 A 
HETATM   26  C   UNK     0     -13.167   9.350  10.875  0.00  0.00     0.051 C 
HETATM   27  C   UNK     0     -11.485   8.990  12.771  0.00  0.00    -0.027 A 
HETATM   28  C   UNK     0     -12.006   6.521  10.075  0.00  0.00     0.115 C 
HETATM   29  H   UNK     0     -10.874   4.117  11.346  0.00  0.00     0.165 HD
HETATM   30  H   UNK     0     -12.584   3.847  14.265  0.00  0.00     0.165 HD
HETATM   31  H   UNK     0     -11.621   5.793  14.939  0.00  0.00     0.165 HD
HETATM   32  H   UNK     0      -9.921   6.123  12.119  0.00  0.00     0.165 HD
ENDROOT
BRANCH   6  33
HETATM   33  C   UNK     0     -15.413   2.854  10.746  0.00  0.00     0.051 C 
BRANCH  33  34
HETATM   34  C   UNK     0     -15.887   2.555  12.149  0.00  0.00     0.114 C 
BRANCH  34  35
HETATM   35  C   UNK     0     -16.371   1.144  12.165  0.00  0.00     0.139 C 
HETATM   36  O   UNK     0     -17.437   0.844  12.778  0.00  0.00    -0.650 OA
BRANCH  35  37
HETATM   37  O   UNK     0     -15.696   0.113  11.524  0.00  0.00    -0.776 OA
HETATM   38  H   UNK     0     -16.170  -0.713  11.195  0.00  0.00     0.167 HD
ENDBRANCH  35  37
ENDBRANCH  34  35
ENDBRANCH  33  34
ENDBRANCH   6  33
BRANCH  27  39
HETATM   39  C   UNK     0     -11.788  10.298  13.411  0.00  0.00     0.051 C 
BRANCH  39  40
HETATM   40  C   UNK     0     -12.958  10.389  14.285  0.00  0.00     0.114 C 
BRANCH  40  41
HETATM   41  C   UNK     0     -13.556   9.223  14.895  0.00  0.00     0.139 C 
HETATM   42  O   UNK     0     -13.066   8.633  15.868  0.00  0.00    -0.650 OA
BRANCH  41  43
HETATM   43  O   UNK     0     -14.773   8.711  14.362  0.00  0.00    -0.776 OA
HETATM   44  H   UNK     0     -15.603   8.987  14.873  0.00  0.00     0.167 HD
ENDBRANCH  41  43
ENDBRANCH  40  41
ENDBRANCH  39  40
ENDBRANCH  27  39
BRANCH  11  45
HETATM   45  C   UNK     0      -9.481   0.567  15.715  0.00  0.00     0.051 C 
BRANCH  45  46
HETATM   46  C   UNK     0      -9.979   0.048  17.015  0.00  0.00     0.114 C 
BRANCH  46  47
HETATM   47  C   UNK     0     -10.688  -1.234  16.736  0.00  0.00     0.139 C 
HETATM   48  O   UNK     0     -11.925  -1.227  16.682  0.00  0.00    -0.650 OA
BRANCH  47  49
HETATM   49  O   UNK     0      -9.986  -2.397  16.545  0.00  0.00    -0.776 OA
HETATM   50  H   UNK     0     -10.255  -3.277  17.001  0.00  0.00     0.167 HD
ENDBRANCH  47  49
ENDBRANCH  46  47
ENDBRANCH  45  46
ENDBRANCH  11  45
BRANCH  18  51
HETATM   51  C   UNK     0      -7.221   7.168  15.998  0.00  0.00     0.051 C 
BRANCH  51  52
HETATM   52  C   UNK     0      -7.136   7.593  17.456  0.00  0.00     0.114 C 
BRANCH  52  53
HETATM   53  C   UNK     0      -6.784   9.019  17.593  0.00  0.00     0.139 C 
HETATM   54  O   UNK     0      -6.908   9.786  16.625  0.00  0.00    -0.650 OA
BRANCH  53  55
HETATM   55  O   UNK     0      -6.315   9.491  18.795  0.00  0.00    -0.776 OA
HETATM   56  H   UNK     0      -6.694   9.287  19.690  0.00  0.00     0.167 HD
ENDBRANCH  53  55
ENDBRANCH  52  53
ENDBRANCH  51  52
ENDBRANCH  18  51
TORSDOF 16
ENDMDL
MODEL 13
REMARK VINA RESULT:      -7.5      6.666     11.810
REMARK  16 active torsions:
REMARK  status: ('A' for Active; 'I' for Inactive)
REMARK    1  A    between atoms: C_6  and  C_7 
REMARK    2  A    between atoms: C_7  and  C_8 
REMARK    3  A    between atoms: C_8  and  C_9 
REMARK    4  A    between atoms: C_9  and  O_11 
REMARK    5  A    between atoms: C_16  and  C_17 
REMARK    6  A    between atoms: C_17  and  C_18 
REMARK    7  A    between atoms: C_18  and  C_19 
REMARK    8  A    between atoms: C_19  and  O_21 
REMARK    9  A    between atoms: C_28  and  C_29 
REMARK   10  A    between atoms: C_29  and  C_30 
REMARK   11  A    between atoms: C_30  and  C_31 
REMARK   12  A    between atoms: C_31  and  O_33 
REMARK   13  A    between atoms: C_42  and  C_43 
REMARK   14  A    between atoms: C_43  and  C_44 
REMARK   15  A    between atoms: C_44  and  C_45 
REMARK   16  A    between atoms: C_45  and  O_47 
ROOT
HETATM    1  C   UNK     0     -33.385   1.547   0.792  0.00  0.00     0.051 C 
HETATM    2  C   UNK     0     -32.179   2.171   1.465  0.00  0.00    -0.031 A 
HETATM    3  C   UNK     0     -31.866   2.250   2.813  0.00  0.00     0.021 A 
HETATM    4  N   UNK     0     -30.701   2.924   2.957  0.00  0.00    -0.361 N 
HETATM    5  C   UNK     0     -30.260   3.270   1.730  0.00  0.00     0.022 A 
HETATM    6  C   UNK     0     -31.162   2.816   0.773  0.00  0.00    -0.027 A 
HETATM    7  C   UNK     0     -28.983   3.941   1.331  0.00  0.00     0.115 C 
HETATM    8  C   UNK     0     -27.720   3.473   2.033  0.00  0.00     0.021 A 
HETATM    9  N   UNK     0     -27.397   2.235   2.438  0.00  0.00    -0.361 N 
HETATM   10  C   UNK     0     -26.221   2.302   3.096  0.00  0.00     0.022 A 
HETATM   11  C   UNK     0     -25.769   3.619   3.108  0.00  0.00    -0.027 A 
HETATM   12  C   UNK     0     -26.708   4.361   2.439  0.00  0.00    -0.031 A 
HETATM   13  C   UNK     0     -26.634   5.853   2.199  0.00  0.00     0.051 C 
HETATM   14  C   UNK     0     -25.506   1.143   3.784  0.00  0.00     0.115 C 
HETATM   15  C   UNK     0     -26.309   0.501   4.904  0.00  0.00     0.021 A 
HETATM   16  N   UNK     0     -27.526  -0.068   4.819  0.00  0.00    -0.361 N 
HETATM   17  C   UNK     0     -27.917  -0.451   6.037  0.00  0.00     0.022 A 
HETATM   18  C   UNK     0     -26.902  -0.124   6.958  0.00  0.00    -0.027 A 
HETATM   19  C   UNK     0     -25.900   0.470   6.235  0.00  0.00    -0.031 A 
HETATM   20  C   UNK     0     -24.592   0.948   6.840  0.00  0.00     0.051 C 
HETATM   21  C   UNK     0     -29.220  -1.069   6.490  0.00  0.00     0.115 C 
HETATM   22  C   UNK     0     -30.480  -0.646   5.771  0.00  0.00     0.022 A 
HETATM   23  N   UNK     0     -30.825   0.579   5.353  0.00  0.00    -0.361 N 
HETATM   24  C   UNK     0     -31.960   0.476   4.632  0.00  0.00     0.021 A 
HETATM   25  C   UNK     0     -32.361  -0.846   4.595  0.00  0.00    -0.031 A 
HETATM   26  C   UNK     0     -33.589  -1.452   3.947  0.00  0.00     0.051 C 
HETATM   27  C   UNK     0     -31.430  -1.583   5.317  0.00  0.00    -0.027 A 
HETATM   28  C   UNK     0     -32.685   1.576   3.878  0.00  0.00     0.115 C 
HETATM   29  H   UNK     0     -30.219   3.186   3.927  0.00  0.00     0.165 HD
HETATM   30  H   UNK     0     -27.973   1.303   2.217  0.00  0.00     0.165 HD
HETATM   31  H   UNK     0     -28.102  -0.247   3.874  0.00  0.00     0.165 HD
HETATM   32  H   UNK     0     -30.294   1.535   5.599  0.00  0.00     0.165 HD
ENDROOT
BRANCH   6  33
HETATM   33  C   UNK     0     -31.133   2.950  -0.728  0.00  0.00     0.051 C 
BRANCH  33  34
HETATM   34  C   UNK     0     -30.328   1.833  -1.350  0.00  0.00     0.114 C 
BRANCH  34  35
HETATM   35  C   UNK     0     -29.240   2.461  -2.153  0.00  0.00     0.139 C 
HETATM   36  O   UNK     0     -28.382   1.738  -2.739  0.00  0.00    -0.650 OA
BRANCH  35  37
HETATM   37  O   UNK     0     -29.114   3.837  -2.299  0.00  0.00    -0.776 OA
HETATM   38  H   UNK     0     -29.605   4.345  -3.017  0.00  0.00     0.167 HD
ENDBRANCH  35  37
ENDBRANCH  34  35
ENDBRANCH  33  34
ENDBRANCH   6  33
BRANCH  27  39
HETATM   39  C   UNK     0     -31.565  -3.045   5.559  0.00  0.00     0.051 C 
BRANCH  39  40
HETATM   40  C   UNK     0     -31.696  -3.510   6.940  0.00  0.00     0.114 C 
BRANCH  40  41
HETATM   41  C   UNK     0     -30.746  -4.420   7.540  0.00  0.00     0.139 C 
HETATM   42  O   UNK     0     -31.069  -5.340   8.303  0.00  0.00    -0.650 OA
BRANCH  41  43
HETATM   43  O   UNK     0     -29.361  -4.264   7.249  0.00  0.00    -0.776 OA
HETATM   44  H   UNK     0     -29.143  -4.221   6.261  0.00  0.00     0.167 HD
ENDBRANCH  41  43
ENDBRANCH  40  41
ENDBRANCH  39  40
ENDBRANCH  27  39
BRANCH  11  45
HETATM   45  C   UNK     0     -24.508   4.176   3.714  0.00  0.00     0.051 C 
BRANCH  45  46
HETATM   46  C   UNK     0     -23.274   3.841   2.959  0.00  0.00     0.114 C 
BRANCH  46  47
HETATM   47  C   UNK     0     -22.300   3.272   3.934  0.00  0.00     0.139 C 
HETATM   48  O   UNK     0     -21.423   4.015   4.397  0.00  0.00    -0.650 OA
BRANCH  47  49
HETATM   49  O   UNK     0     -22.372   1.955   4.312  0.00  0.00    -0.776 OA
HETATM   50  H   UNK     0     -23.210   1.559   4.753  0.00  0.00     0.167 HD
ENDBRANCH  47  49
ENDBRANCH  46  47
ENDBRANCH  45  46
ENDBRANCH  11  45
BRANCH  18  51
HETATM   51  C   UNK     0     -26.878  -0.383   8.442  0.00  0.00     0.051 C 
BRANCH  51  52
HETATM   52  C   UNK     0     -26.282  -1.771   8.623  0.00  0.00     0.114 C 
BRANCH  52  53
HETATM   53  C   UNK     0     -24.915  -1.714   9.176  0.00  0.00     0.139 C 
HETATM   54  O   UNK     0     -24.707  -1.144  10.259  0.00  0.00    -0.650 OA
BRANCH  53  55
HETATM   55  O   UNK     0     -23.877  -2.291   8.485  0.00  0.00    -0.776 OA
HETATM   56  H   UNK     0     -23.492  -1.964   7.631  0.00  0.00     0.167 HD
ENDBRANCH  53  55
ENDBRANCH  52  53
ENDBRANCH  51  52
ENDBRANCH  18  51
TORSDOF 16
ENDMDL
MODEL 14
REMARK VINA RESULT:      -7.5     23.545     26.385
REMARK  16 active torsions:
REMARK  status: ('A' for Active; 'I' for Inactive)
REMARK    1  A    between atoms: C_6  and  C_7 
REMARK    2  A    between atoms: C_7  and  C_8 
REMARK    3  A    between atoms: C_8  and  C_9 
REMARK    4  A    between atoms: C_9  and  O_11 
REMARK    5  A    between atoms: C_16  and  C_17 
REMARK    6  A    between atoms: C_17  and  C_18 
REMARK    7  A    between atoms: C_18  and  C_19 
REMARK    8  A    between atoms: C_19  and  O_21 
REMARK    9  A    between atoms: C_28  and  C_29 
REMARK   10  A    between atoms: C_29  and  C_30 
REMARK   11  A    between atoms: C_30  and  C_31 
REMARK   12  A    between atoms: C_31  and  O_33 
REMARK   13  A    between atoms: C_42  and  C_43 
REMARK   14  A    between atoms: C_43  and  C_44 
REMARK   15  A    between atoms: C_44  and  C_45 
REMARK   16  A    between atoms: C_45  and  O_47 
ROOT
HETATM    1  C   UNK     0      -9.480   1.289  19.516  0.00  0.00     0.051 C 
HETATM    2  C   UNK     0      -9.136   2.320  18.460  0.00  0.00    -0.031 A 
HETATM    3  C   UNK     0      -9.126   2.195  17.080  0.00  0.00     0.021 A 
HETATM    4  N   UNK     0      -8.723   3.367  16.534  0.00  0.00    -0.361 N 
HETATM    5  C   UNK     0      -8.484   4.238  17.536  0.00  0.00     0.022 A 
HETATM    6  C   UNK     0      -8.730   3.615  18.755  0.00  0.00    -0.027 A 
HETATM    7  C   UNK     0      -8.110   5.686  17.470  0.00  0.00     0.115 C 
HETATM    8  C   UNK     0      -8.842   6.533  16.444  0.00  0.00     0.021 A 
HETATM    9  N   UNK     0     -10.120   6.444  16.045  0.00  0.00    -0.361 N 
HETATM   10  C   UNK     0     -10.312   7.336  15.050  0.00  0.00     0.022 A 
HETATM   11  C   UNK     0      -9.127   8.025  14.807  0.00  0.00    -0.027 A 
HETATM   12  C   UNK     0      -8.197   7.524  15.682  0.00  0.00    -0.031 A 
HETATM   13  C   UNK     0      -6.759   7.980  15.785  0.00  0.00     0.051 C 
HETATM   14  C   UNK     0     -11.599   7.537  14.255  0.00  0.00     0.115 C 
HETATM   15  C   UNK     0     -12.048   6.303  13.488  0.00  0.00     0.021 A 
HETATM   16  N   UNK     0     -12.336   5.086  13.986  0.00  0.00    -0.361 N 
HETATM   17  C   UNK     0     -12.622   4.257  12.980  0.00  0.00     0.022 A 
HETATM   18  C   UNK     0     -12.525   4.970  11.769  0.00  0.00    -0.027 A 
HETATM   19  C   UNK     0     -12.166   6.251  12.101  0.00  0.00    -0.031 A 
HETATM   20  C   UNK     0     -11.986   7.367  11.087  0.00  0.00     0.051 C 
HETATM   21  C   UNK     0     -12.939   2.779  12.999  0.00  0.00     0.115 C 
HETATM   22  C   UNK     0     -12.251   1.931  14.043  0.00  0.00     0.022 A 
HETATM   23  N   UNK     0     -10.981   2.001  14.463  0.00  0.00    -0.361 N 
HETATM   24  C   UNK     0     -10.834   1.159  15.506  0.00  0.00     0.021 A 
HETATM   25  C   UNK     0     -12.035   0.525  15.758  0.00  0.00    -0.031 A 
HETATM   26  C   UNK     0     -12.358  -0.529  16.796  0.00  0.00     0.051 C 
HETATM   27  C   UNK     0     -12.958   1.003  14.834  0.00  0.00    -0.027 A 
HETATM   28  C   UNK     0      -9.601   0.958  16.372  0.00  0.00     0.115 C 
HETATM   29  H   UNK     0      -8.571   3.559  15.446  0.00  0.00     0.165 HD
HETATM   30  H   UNK     0     -10.903   5.788  16.498  0.00  0.00     0.165 HD
HETATM   31  H   UNK     0     -12.386   4.818  15.073  0.00  0.00     0.165 HD
HETATM   32  H   UNK     0     -10.165   2.613  13.999  0.00  0.00     0.165 HD
ENDROOT
BRANCH   6  33
HETATM   33  C   UNK     0      -8.608   4.148  20.160  0.00  0.00     0.051 C 
BRANCH  33  34
HETATM   34  C   UNK     0      -7.157   4.349  20.531  0.00  0.00     0.114 C 
BRANCH  34  35
HETATM   35  C   UNK     0      -6.662   3.064  21.103  0.00  0.00     0.139 C 
HETATM   36  O   UNK     0      -7.275   2.516  22.065  0.00  0.00    -0.650 OA
BRANCH  35  37
HETATM   37  O   UNK     0      -5.531   2.416  20.621  0.00  0.00    -0.776 OA
HETATM   38  H   UNK     0      -4.716   2.266  21.194  0.00  0.00     0.167 HD
ENDBRANCH  35  37
ENDBRANCH  34  35
ENDBRANCH  33  34
ENDBRANCH   6  33
BRANCH  27  39
HETATM   39  C   UNK     0     -14.354   0.496  14.747  0.00  0.00     0.051 C 
BRANCH  39  40
HETATM   40  C   UNK     0     -14.740  -0.276  13.566  0.00  0.00     0.114 C 
BRANCH  40  41
HETATM   41  C   UNK     0     -15.633   0.251  12.558  0.00  0.00     0.139 C 
HETATM   42  O   UNK     0     -16.200   1.348  12.654  0.00  0.00    -0.650 OA
BRANCH  41  43
HETATM   43  O   UNK     0     -15.887  -0.519  11.388  0.00  0.00    -0.776 OA
HETATM   44  H   UNK     0     -15.732  -1.514  11.500  0.00  0.00     0.167 HD
ENDBRANCH  41  43
ENDBRANCH  40  41
ENDBRANCH  39  40
ENDBRANCH  27  39
BRANCH  11  45
HETATM   45  C   UNK     0      -8.859   9.113  13.803  0.00  0.00     0.051 C 
BRANCH  45  46
HETATM   46  C   UNK     0      -9.511  10.408  14.123  0.00  0.00     0.114 C 
BRANCH  46  47
HETATM   47  C   UNK     0      -8.443  11.448  14.144  0.00  0.00     0.139 C 
HETATM   48  O   UNK     0      -8.212  12.080  13.104  0.00  0.00    -0.650 OA
BRANCH  47  49
HETATM   49  O   UNK     0      -7.729  11.699  15.289  0.00  0.00    -0.776 OA
HETATM   50  H   UNK     0      -7.185  10.969  15.763  0.00  0.00     0.167 HD
ENDBRANCH  47  49
ENDBRANCH  46  47
ENDBRANCH  45  46
ENDBRANCH  11  45
BRANCH  18  51
HETATM   51  C   UNK     0     -12.781   4.465  10.373  0.00  0.00     0.051 C 
BRANCH  51  52
HETATM   52  C   UNK     0     -11.464   3.885   9.881  0.00  0.00     0.114 C 
BRANCH  52  53
HETATM   53  C   UNK     0     -11.621   2.504   9.386  0.00  0.00     0.139 C 
HETATM   54  O   UNK     0     -10.935   1.589   9.868  0.00  0.00    -0.650 OA
BRANCH  53  55
HETATM   55  O   UNK     0     -12.529   2.239   8.389  0.00  0.00    -0.776 OA
HETATM   56  H   UNK     0     -12.940   1.356   8.193  0.00  0.00     0.167 HD
ENDBRANCH  53  55
ENDBRANCH  52  53
ENDBRANCH  51  52
ENDBRANCH  18  51
TORSDOF 16
ENDMDL
MODEL 15
REMARK VINA RESULT:      -7.5     22.174     24.442
REMARK  16 active torsions:
REMARK  status: ('A' for Active; 'I' for Inactive)
REMARK    1  A    between atoms: C_6  and  C_7 
REMARK    2  A    between atoms: C_7  and  C_8 
REMARK    3  A    between atoms: C_8  and  C_9 
REMARK    4  A    between atoms: C_9  and  O_11 
REMARK    5  A    between atoms: C_16  and  C_17 
REMARK    6  A    between atoms: C_17  and  C_18 
REMARK    7  A    between atoms: C_18  and  C_19 
REMARK    8  A    between atoms: C_19  and  O_21 
REMARK    9  A    between atoms: C_28  and  C_29 
REMARK   10  A    between atoms: C_29  and  C_30 
REMARK   11  A    between atoms: C_30  and  C_31 
REMARK   12  A    between atoms: C_31  and  O_33 
REMARK   13  A    between atoms: C_42  and  C_43 
REMARK   14  A    between atoms: C_43  and  C_44 
REMARK   15  A    between atoms: C_44  and  C_45 
REMARK   16  A    between atoms: C_45  and  O_47 
ROOT
HETATM    1  C   UNK     0      -9.254   0.632  19.072  0.00  0.00     0.051 C 
HETATM    2  C   UNK     0     -10.375   0.900  18.089  0.00  0.00    -0.031 A 
HETATM    3  C   UNK     0     -10.909   2.109  17.672  0.00  0.00     0.021 A 
HETATM    4  N   UNK     0     -11.921   1.869  16.805  0.00  0.00    -0.361 N 
HETATM    5  C   UNK     0     -12.038   0.534  16.654  0.00  0.00     0.022 A 
HETATM    6  C   UNK     0     -11.088  -0.103  17.445  0.00  0.00    -0.027 A 
HETATM    7  C   UNK     0     -12.934  -0.247  15.743  0.00  0.00     0.115 C 
HETATM    8  C   UNK     0     -13.086   0.275  14.325  0.00  0.00     0.021 A 
HETATM    9  N   UNK     0     -12.165   0.868  13.549  0.00  0.00    -0.361 N 
HETATM   10  C   UNK     0     -12.766   1.250  12.402  0.00  0.00     0.022 A 
HETATM   11  C   UNK     0     -14.109   0.885  12.437  0.00  0.00    -0.027 A 
HETATM   12  C   UNK     0     -14.317   0.270  13.645  0.00  0.00    -0.031 A 
HETATM   13  C   UNK     0     -15.635  -0.299  14.121  0.00  0.00     0.051 C 
HETATM   14  C   UNK     0     -12.115   2.018  11.256  0.00  0.00     0.115 C 
HETATM   15  C   UNK     0     -11.587   3.387  11.654  0.00  0.00     0.021 A 
HETATM   16  N   UNK     0     -10.672   3.671  12.599  0.00  0.00    -0.361 N 
HETATM   17  C   UNK     0     -10.533   4.996  12.691  0.00  0.00     0.022 A 
HETATM   18  C   UNK     0     -11.393   5.604  11.754  0.00  0.00    -0.027 A 
HETATM   19  C   UNK     0     -12.046   4.585  11.110  0.00  0.00    -0.031 A 
HETATM   20  C   UNK     0     -13.047   4.800   9.990  0.00  0.00     0.051 C 
HETATM   21  C   UNK     0      -9.693   5.822  13.638  0.00  0.00     0.115 C 
HETATM   22  C   UNK     0      -9.497   5.292  15.039  0.00  0.00     0.022 A 
HETATM   23  N   UNK     0     -10.394   4.694  15.833  0.00  0.00    -0.361 N 
HETATM   24  C   UNK     0      -9.756   4.253  16.936  0.00  0.00     0.021 A 
HETATM   25  C   UNK     0      -8.417   4.584  16.855  0.00  0.00    -0.031 A 
HETATM   26  C   UNK     0      -7.312   4.340  17.861  0.00  0.00     0.051 C 
HETATM   27  C   UNK     0      -8.227   5.250  15.650  0.00  0.00    -0.027 A 
HETATM   28  C   UNK     0     -10.333   3.436  18.079  0.00  0.00     0.115 C 
HETATM   29  H   UNK     0     -12.572   2.643  16.336  0.00  0.00     0.165 HD
HETATM   30  H   UNK     0     -11.079   0.974  13.787  0.00  0.00     0.165 HD
HETATM   31  H   UNK     0     -10.075   2.921  13.180  0.00  0.00     0.165 HD
HETATM   32  H   UNK     0     -11.496   4.615  15.642  0.00  0.00     0.165 HD
ENDROOT
BRANCH   6  33
HETATM   33  C   UNK     0     -10.811  -1.573  17.635  0.00  0.00     0.051 C 
BRANCH  33  34
HETATM   34  C   UNK     0     -11.735  -2.161  18.676  0.00  0.00     0.114 C 
BRANCH  34  35
HETATM   35  C   UNK     0     -12.450  -3.306  18.042  0.00  0.00     0.139 C 
HETATM   36  O   UNK     0     -13.681  -3.211  17.761  0.00  0.00    -0.650 OA
BRANCH  35  37
HETATM   37  O   UNK     0     -11.819  -4.504  17.732  0.00  0.00    -0.776 OA
HETATM   38  H   UNK     0     -11.972  -4.977  16.855  0.00  0.00     0.167 HD
ENDBRANCH  35  37
ENDBRANCH  34  35
ENDBRANCH  33  34
ENDBRANCH   6  33
BRANCH  27  39
HETATM   39  C   UNK     0      -6.918   5.828  15.240  0.00  0.00     0.051 C 
BRANCH  39  40
HETATM   40  C   UNK     0      -6.574   7.169  15.709  0.00  0.00     0.114 C 
BRANCH  40  41
HETATM   41  C   UNK     0      -7.581   8.139  16.078  0.00  0.00     0.139 C 
HETATM   42  O   UNK     0      -8.111   8.914  15.270  0.00  0.00    -0.650 OA
BRANCH  41  43
HETATM   43  O   UNK     0      -7.998   8.221  17.437  0.00  0.00    -0.776 OA
HETATM   44  H   UNK     0      -7.249   8.115  18.111  0.00  0.00     0.167 HD
ENDBRANCH  41  43
ENDBRANCH  40  41
ENDBRANCH  39  40
ENDBRANCH  27  39
BRANCH  11  45
HETATM   45  C   UNK     0     -15.169   1.092  11.388  0.00  0.00     0.051 C 
BRANCH  45  46
HETATM   46  C   UNK     0     -15.450   2.519  11.085  0.00  0.00     0.114 C 
BRANCH  46  47
HETATM   47  C   UNK     0     -15.946   3.148  12.342  0.00  0.00     0.139 C 
HETATM   48  O   UNK     0     -15.278   4.059  12.852  0.00  0.00    -0.650 OA
BRANCH  47  49
HETATM   49  O   UNK     0     -17.115   2.728  12.924  0.00  0.00    -0.776 OA
HETATM   50  H   UNK     0     -17.258   2.755  13.941  0.00  0.00     0.167 HD
ENDBRANCH  47  49
ENDBRANCH  46  47
ENDBRANCH  45  46
ENDBRANCH  11  45
BRANCH  18  51
HETATM   51  C   UNK     0     -11.567   7.074  11.473  0.00  0.00     0.051 C 
BRANCH  51  52
HETATM   52  C   UNK     0     -12.749   7.531  12.315  0.00  0.00     0.114 C 
BRANCH  52  53
HETATM   53  C   UNK     0     -13.803   8.151  11.489  0.00  0.00     0.139 C 
HETATM   54  O   UNK     0     -14.936   8.335  11.963  0.00  0.00    -0.650 OA
BRANCH  53  55
HETATM   55  O   UNK     0     -13.525   8.520  10.195  0.00  0.00    -0.776 OA
HETATM   56  H   UNK     0     -14.107   8.364   9.406  0.00  0.00     0.167 HD
ENDBRANCH  53  55
ENDBRANCH  52  53
ENDBRANCH  51  52
ENDBRANCH  18  51
TORSDOF 16
ENDMDL
MODEL 16
REMARK VINA RESULT:      -7.5     24.562     27.253
REMARK  16 active torsions:
REMARK  status: ('A' for Active; 'I' for Inactive)
REMARK    1  A    between atoms: C_6  and  C_7 
REMARK    2  A    between atoms: C_7  and  C_8 
REMARK    3  A    between atoms: C_8  and  C_9 
REMARK    4  A    between atoms: C_9  and  O_11 
REMARK    5  A    between atoms: C_16  and  C_17 
REMARK    6  A    between atoms: C_17  and  C_18 
REMARK    7  A    between atoms: C_18  and  C_19 
REMARK    8  A    between atoms: C_19  and  O_21 
REMARK    9  A    between atoms: C_28  and  C_29 
REMARK   10  A    between atoms: C_29  and  C_30 
REMARK   11  A    between atoms: C_30  and  C_31 
REMARK   12  A    between atoms: C_31  and  O_33 
REMARK   13  A    between atoms: C_42  and  C_43 
REMARK   14  A    between atoms: C_43  and  C_44 
REMARK   15  A    between atoms: C_44  and  C_45 
REMARK   16  A    between atoms: C_45  and  O_47 
ROOT
HETATM    1  C   UNK     0     -11.399   7.688  12.753  0.00  0.00     0.051 C 
HETATM    2  C   UNK     0     -11.003   7.242  14.146  0.00  0.00    -0.031 A 
HETATM    3  C   UNK     0     -11.654   6.377  15.011  0.00  0.00     0.021 A 
HETATM    4  N   UNK     0     -10.951   6.295  16.165  0.00  0.00    -0.361 N 
HETATM    5  C   UNK     0      -9.861   7.082  16.051  0.00  0.00     0.022 A 
HETATM    6  C   UNK     0      -9.863   7.691  14.801  0.00  0.00    -0.027 A 
HETATM    7  C   UNK     0      -8.719   7.271  17.001  0.00  0.00     0.115 C 
HETATM    8  C   UNK     0      -8.174   6.021  17.669  0.00  0.00     0.021 A 
HETATM    9  N   UNK     0      -8.054   4.785  17.159  0.00  0.00    -0.361 N 
HETATM   10  C   UNK     0      -7.607   3.970  18.138  0.00  0.00     0.022 A 
HETATM   11  C   UNK     0      -7.426   4.702  19.308  0.00  0.00    -0.027 A 
HETATM   12  C   UNK     0      -7.781   5.995  19.019  0.00  0.00    -0.031 A 
HETATM   13  C   UNK     0      -7.740   7.151  19.993  0.00  0.00     0.051 C 
HETATM   14  C   UNK     0      -7.385   2.464  18.026  0.00  0.00     0.115 C 
HETATM   15  C   UNK     0      -8.643   1.680  17.690  0.00  0.00     0.021 A 
HETATM   16  N   UNK     0      -9.437   1.822  16.612  0.00  0.00    -0.361 N 
HETATM   17  C   UNK     0     -10.478   0.994  16.721  0.00  0.00     0.022 A 
HETATM   18  C   UNK     0     -10.353   0.272  17.925  0.00  0.00    -0.027 A 
HETATM   19  C   UNK     0      -9.199   0.709  18.521  0.00  0.00    -0.031 A 
HETATM   20  C   UNK     0      -8.666   0.160  19.832  0.00  0.00     0.051 C 
HETATM   21  C   UNK     0     -11.681   0.821  15.821  0.00  0.00     0.115 C 
HETATM   22  C   UNK     0     -12.207   2.048  15.116  0.00  0.00     0.022 A 
HETATM   23  N   UNK     0     -12.334   3.292  15.597  0.00  0.00    -0.361 N 
HETATM   24  C   UNK     0     -12.705   4.102  14.585  0.00  0.00     0.021 A 
HETATM   25  C   UNK     0     -12.830   3.360  13.426  0.00  0.00    -0.031 A 
HETATM   26  C   UNK     0     -13.261   3.812  12.046  0.00  0.00     0.051 C 
HETATM   27  C   UNK     0     -12.517   2.043  13.740  0.00  0.00    -0.027 A 
HETATM   28  C   UNK     0     -12.885   5.610  14.619  0.00  0.00     0.115 C 
HETATM   29  H   UNK     0     -11.250   5.713  17.067  0.00  0.00     0.165 HD
HETATM   30  H   UNK     0      -8.236   4.495  16.096  0.00  0.00     0.165 HD
HETATM   31  H   UNK     0      -9.233   2.485  15.731  0.00  0.00     0.165 HD
HETATM   32  H   UNK     0     -12.205   3.602  16.666  0.00  0.00     0.165 HD
ENDROOT
BRANCH   6  33
HETATM   33  C   UNK     0      -8.880   8.657  14.190  0.00  0.00     0.051 C 
BRANCH  33  34
HETATM   34  C   UNK     0      -9.521  10.007  13.970  0.00  0.00     0.114 C 
BRANCH  34  35
HETATM   35  C   UNK     0      -8.453  11.037  14.113  0.00  0.00     0.139 C 
HETATM   36  O   UNK     0      -8.270  11.895  13.201  0.00  0.00    -0.650 OA
BRANCH  35  37
HETATM   37  O   UNK     0      -7.626  11.110  15.227  0.00  0.00    -0.776 OA
HETATM   38  H   UNK     0      -6.795  10.547  15.313  0.00  0.00     0.167 HD
ENDBRANCH  35  37
ENDBRANCH  34  35
ENDBRANCH  33  34
ENDBRANCH   6  33
BRANCH  27  39
HETATM   39  C   UNK     0     -12.608   0.930  12.756  0.00  0.00     0.051 C 
BRANCH  39  40
HETATM   40  C   UNK     0     -11.371   0.427  12.160  0.00  0.00     0.114 C 
BRANCH  40  41
HETATM   41  C   UNK     0     -11.019   0.686  10.782  0.00  0.00     0.139 C 
HETATM   42  O   UNK     0      -9.964   0.297  10.262  0.00  0.00    -0.650 OA
BRANCH  41  43
HETATM   43  O   UNK     0     -11.920   1.425   9.965  0.00  0.00    -0.776 OA
HETATM   44  H   UNK     0     -12.198   2.320  10.351  0.00  0.00     0.167 HD
ENDBRANCH  41  43
ENDBRANCH  40  41
ENDBRANCH  39  40
ENDBRANCH  27  39
BRANCH  11  45
HETATM   45  C   UNK     0      -6.938   4.228  20.650  0.00  0.00     0.051 C 
BRANCH  45  46
HETATM   46  C   UNK     0      -5.578   4.708  21.005  0.00  0.00     0.114 C 
BRANCH  46  47
HETATM   47  C   UNK     0      -4.705   3.507  21.132  0.00  0.00     0.139 C 
HETATM   48  O   UNK     0      -3.580   3.643  21.635  0.00  0.00    -0.650 OA
BRANCH  47  49
HETATM   49  O   UNK     0      -5.134   2.277  20.700  0.00  0.00    -0.776 OA
HETATM   50  H   UNK     0      -4.583   1.706  20.048  0.00  0.00     0.167 HD
ENDBRANCH  47  49
ENDBRANCH  46  47
ENDBRANCH  45  46
ENDBRANCH  11  45
BRANCH  18  51
HETATM   51  C   UNK     0     -11.272  -0.793  18.466  0.00  0.00     0.051 C 
BRANCH  51  52
HETATM   52  C   UNK     0     -10.834  -2.101  17.822  0.00  0.00     0.114 C 
BRANCH  52  53
HETATM   53  C   UNK     0     -11.488  -3.266  18.447  0.00  0.00     0.139 C 
HETATM   54  O   UNK     0     -11.764  -3.250  19.657  0.00  0.00    -0.650 OA
BRANCH  53  55
HETATM   55  O   UNK     0     -11.787  -4.368  17.682  0.00  0.00    -0.776 OA
HETATM   56  H   UNK     0     -12.629  -4.894  17.719  0.00  0.00     0.167 HD
ENDBRANCH  53  55
ENDBRANCH  52  53
ENDBRANCH  51  52
ENDBRANCH  18  51
TORSDOF 16
ENDMDL
MODEL 17
REMARK VINA RESULT:      -7.4     21.878     24.463
REMARK  16 active torsions:
REMARK  status: ('A' for Active; 'I' for Inactive)
REMARK    1  A    between atoms: C_6  and  C_7 
REMARK    2  A    between atoms: C_7  and  C_8 
REMARK    3  A    between atoms: C_8  and  C_9 
REMARK    4  A    between atoms: C_9  and  O_11 
REMARK    5  A    between atoms: C_16  and  C_17 
REMARK    6  A    between atoms: C_17  and  C_18 
REMARK    7  A    between atoms: C_18  and  C_19 
REMARK    8  A    between atoms: C_19  and  O_21 
REMARK    9  A    between atoms: C_28  and  C_29 
REMARK   10  A    between atoms: C_29  and  C_30 
REMARK   11  A    between atoms: C_30  and  C_31 
REMARK   12  A    between atoms: C_31  and  O_33 
REMARK   13  A    between atoms: C_42  and  C_43 
REMARK   14  A    between atoms: C_43  and  C_44 
REMARK   15  A    between atoms: C_44  and  C_45 
REMARK   16  A    between atoms: C_45  and  O_47 
ROOT
HETATM    1  C   UNK     0     -12.352   1.244  14.851  0.00  0.00     0.051 C 
HETATM    2  C   UNK     0     -13.202   2.296  14.169  0.00  0.00    -0.031 A 
HETATM    3  C   UNK     0     -13.616   3.533  14.638  0.00  0.00     0.021 A 
HETATM    4  N   UNK     0     -14.390   4.125  13.698  0.00  0.00    -0.361 N 
HETATM    5  C   UNK     0     -14.471   3.297  12.636  0.00  0.00     0.022 A 
HETATM    6  C   UNK     0     -13.741   2.142  12.898  0.00  0.00    -0.027 A 
HETATM    7  C   UNK     0     -15.123   3.515  11.306  0.00  0.00     0.115 C 
HETATM    8  C   UNK     0     -14.926   4.878  10.666  0.00  0.00     0.021 A 
HETATM    9  N   UNK     0     -13.844   5.670  10.702  0.00  0.00    -0.361 N 
HETATM   10  C   UNK     0     -14.149   6.826  10.075  0.00  0.00     0.022 A 
HETATM   11  C   UNK     0     -15.461   6.772   9.614  0.00  0.00    -0.027 A 
HETATM   12  C   UNK     0     -15.957   5.548   9.983  0.00  0.00    -0.031 A 
HETATM   13  C   UNK     0     -17.352   5.044   9.688  0.00  0.00     0.051 C 
HETATM   14  C   UNK     0     -13.239   8.042   9.931  0.00  0.00     0.115 C 
HETATM   15  C   UNK     0     -12.818   8.656  11.257  0.00  0.00     0.021 A 
HETATM   16  N   UNK     0     -12.157   8.058  12.266  0.00  0.00    -0.361 N 
HETATM   17  C   UNK     0     -12.041   8.915  13.283  0.00  0.00     0.022 A 
HETATM   18  C   UNK     0     -12.648  10.133  12.915  0.00  0.00    -0.027 A 
HETATM   19  C   UNK     0     -13.129   9.958  11.644  0.00  0.00    -0.031 A 
HETATM   20  C   UNK     0     -13.830  11.045  10.850  0.00  0.00     0.051 C 
HETATM   21  C   UNK     0     -11.452   8.715  14.661  0.00  0.00     0.115 C 
HETATM   22  C   UNK     0     -11.602   7.350  15.292  0.00  0.00     0.022 A 
HETATM   23  N   UNK     0     -12.666   6.537  15.268  0.00  0.00    -0.361 N 
HETATM   24  C   UNK     0     -12.314   5.363  15.830  0.00  0.00     0.021 A 
HETATM   25  C   UNK     0     -10.994   5.425  16.234  0.00  0.00    -0.031 A 
HETATM   26  C   UNK     0     -10.165   4.377  16.947  0.00  0.00     0.051 C 
HETATM   27  C   UNK     0     -10.517   6.687  15.900  0.00  0.00    -0.027 A 
HETATM   28  C   UNK     0     -13.152   4.102  15.949  0.00  0.00     0.115 C 
HETATM   29  H   UNK     0     -14.906   5.107  13.807  0.00  0.00     0.165 HD
HETATM   30  H   UNK     0     -12.846   5.398  11.126  0.00  0.00     0.165 HD
HETATM   31  H   UNK     0     -11.721   7.026  12.243  0.00  0.00     0.165 HD
HETATM   32  H   UNK     0     -13.689   6.800  14.894  0.00  0.00     0.165 HD
ENDROOT
BRANCH   6  33
HETATM   33  C   UNK     0     -13.523   0.918  12.045  0.00  0.00     0.051 C 
BRANCH  33  34
HETATM   34  C   UNK     0     -12.093   0.850  11.563  0.00  0.00     0.114 C 
BRANCH  34  35
HETATM   35  C   UNK     0     -11.903   1.950  10.575  0.00  0.00     0.139 C 
HETATM   36  O   UNK     0     -11.135   2.920  10.841  0.00  0.00    -0.650 OA
BRANCH  35  37
HETATM   37  O   UNK     0     -12.539   1.966   9.340  0.00  0.00    -0.776 OA
HETATM   38  H   UNK     0     -12.494   1.186   8.705  0.00  0.00     0.167 HD
ENDBRANCH  35  37
ENDBRANCH  34  35
ENDBRANCH  33  34
ENDBRANCH   6  33
BRANCH  27  39
HETATM   39  C   UNK     0      -9.146   7.153  16.245  0.00  0.00     0.051 C 
BRANCH  39  40
HETATM   40  C   UNK     0      -8.100   7.042  15.229  0.00  0.00     0.114 C 
BRANCH  40  41
HETATM   41  C   UNK     0      -6.731   7.428  15.487  0.00  0.00     0.139 C 
HETATM   42  O   UNK     0      -5.769   6.657  15.367  0.00  0.00    -0.650 OA
BRANCH  41  43
HETATM   43  O   UNK     0      -6.455   8.762  15.903  0.00  0.00    -0.776 OA
HETATM   44  H   UNK     0      -6.686   8.955  16.870  0.00  0.00     0.167 HD
ENDBRANCH  41  43
ENDBRANCH  40  41
ENDBRANCH  39  40
ENDBRANCH  27  39
BRANCH  11  45
HETATM   45  C   UNK     0     -16.236   7.815   8.854  0.00  0.00     0.051 C 
BRANCH  45  46
HETATM   46  C   UNK     0     -16.798   8.894   9.707  0.00  0.00     0.114 C 
BRANCH  46  47
HETATM   47  C   UNK     0     -16.810  10.141   8.890  0.00  0.00     0.139 C 
HETATM   48  O   UNK     0     -16.416  10.085   7.717  0.00  0.00    -0.650 OA
BRANCH  47  49
HETATM   49  O   UNK     0     -17.247  11.327   9.425  0.00  0.00    -0.776 OA
HETATM   50  H   UNK     0     -16.768  12.217   9.242  0.00  0.00     0.167 HD
ENDBRANCH  47  49
ENDBRANCH  46  47
ENDBRANCH  45  46
ENDBRANCH  11  45
BRANCH  18  51
HETATM   51  C   UNK     0     -12.744  11.401  13.724  0.00  0.00     0.051 C 
BRANCH  51  52
HETATM   52  C   UNK     0     -11.445  12.156  13.488  0.00  0.00     0.114 C 
BRANCH  52  53
HETATM   53  C   UNK     0     -11.635  13.306  12.583  0.00  0.00     0.139 C 
HETATM   54  O   UNK     0     -12.119  14.365  13.015  0.00  0.00    -0.650 OA
BRANCH  53  55
HETATM   55  O   UNK     0     -11.278  13.197  11.261  0.00  0.00    -0.776 OA
HETATM   56  H   UNK     0     -11.855  13.408  10.480  0.00  0.00     0.167 HD
ENDBRANCH  53  55
ENDBRANCH  52  53
ENDBRANCH  51  52
ENDBRANCH  18  51
TORSDOF 16
ENDMDL
MODEL 18
REMARK VINA RESULT:      -7.4     22.169     24.198
REMARK  16 active torsions:
REMARK  status: ('A' for Active; 'I' for Inactive)
REMARK    1  A    between atoms: C_6  and  C_7 
REMARK    2  A    between atoms: C_7  and  C_8 
REMARK    3  A    between atoms: C_8  and  C_9 
REMARK    4  A    between atoms: C_9  and  O_11 
REMARK    5  A    between atoms: C_16  and  C_17 
REMARK    6  A    between atoms: C_17  and  C_18 
REMARK    7  A    between atoms: C_18  and  C_19 
REMARK    8  A    between atoms: C_19  and  O_21 
REMARK    9  A    between atoms: C_28  and  C_29 
REMARK   10  A    between atoms: C_29  and  C_30 
REMARK   11  A    between atoms: C_30  and  C_31 
REMARK   12  A    between atoms: C_31  and  O_33 
REMARK   13  A    between atoms: C_42  and  C_43 
REMARK   14  A    between atoms: C_43  and  C_44 
REMARK   15  A    between atoms: C_44  and  C_45 
REMARK   16  A    between atoms: C_45  and  O_47 
ROOT
HETATM    1  C   UNK     0     -15.220   2.485  10.260  0.00  0.00     0.051 C 
HETATM    2  C   UNK     0     -14.420   1.962  11.435  0.00  0.00    -0.031 A 
HETATM    3  C   UNK     0     -13.054   2.018  11.663  0.00  0.00     0.021 A 
HETATM    4  N   UNK     0     -12.776   1.393  12.832  0.00  0.00    -0.361 N 
HETATM    5  C   UNK     0     -13.937   0.949  13.358  0.00  0.00     0.022 A 
HETATM    6  C   UNK     0     -14.985   1.285  12.508  0.00  0.00    -0.027 A 
HETATM    7  C   UNK     0     -14.192   0.281  14.674  0.00  0.00     0.115 C 
HETATM    8  C   UNK     0     -13.462   0.848  15.878  0.00  0.00     0.021 A 
HETATM    9  N   UNK     0     -13.157   2.127  16.146  0.00  0.00    -0.361 N 
HETATM   10  C   UNK     0     -12.424   2.156  17.279  0.00  0.00     0.022 A 
HETATM   11  C   UNK     0     -12.261   0.860  17.760  0.00  0.00    -0.027 A 
HETATM   12  C   UNK     0     -12.912   0.031  16.883  0.00  0.00    -0.031 A 
HETATM   13  C   UNK     0     -13.006  -1.473  17.007  0.00  0.00     0.051 C 
HETATM   14  C   UNK     0     -11.806   3.394  17.922  0.00  0.00     0.115 C 
HETATM   15  C   UNK     0     -10.803   4.113  17.035  0.00  0.00     0.021 A 
HETATM   16  N   UNK     0     -11.015   4.636  15.813  0.00  0.00    -0.361 N 
HETATM   17  C   UNK     0      -9.864   5.119  15.337  0.00  0.00     0.022 A 
HETATM   18  C   UNK     0      -8.857   4.908  16.299  0.00  0.00    -0.027 A 
HETATM   19  C   UNK     0      -9.458   4.279  17.358  0.00  0.00    -0.031 A 
HETATM   20  C   UNK     0      -8.732   3.898  18.636  0.00  0.00     0.051 C 
HETATM   21  C   UNK     0      -9.552   5.738  13.993  0.00  0.00     0.115 C 
HETATM   22  C   UNK     0     -10.303   5.213  12.792  0.00  0.00     0.022 A 
HETATM   23  N   UNK     0     -10.624   3.946  12.503  0.00  0.00    -0.361 N 
HETATM   24  C   UNK     0     -11.419   3.949  11.413  0.00  0.00     0.021 A 
HETATM   25  C   UNK     0     -11.605   5.249  10.985  0.00  0.00    -0.031 A 
HETATM   26  C   UNK     0     -12.381   5.756   9.787  0.00  0.00     0.051 C 
HETATM   27  C   UNK     0     -10.900   6.077  11.851  0.00  0.00    -0.027 A 
HETATM   28  C   UNK     0     -12.109   2.762  10.763  0.00  0.00     0.115 C 
HETATM   29  H   UNK     0     -11.758   1.236  13.258  0.00  0.00     0.165 HD
HETATM   30  H   UNK     0     -13.499   3.017  15.563  0.00  0.00     0.165 HD
HETATM   31  H   UNK     0     -12.006   4.710  15.294  0.00  0.00     0.165 HD
HETATM   32  H   UNK     0     -10.257   3.033  13.039  0.00  0.00     0.165 HD
ENDROOT
BRANCH   6  33
HETATM   33  C   UNK     0     -16.462   1.014  12.635  0.00  0.00     0.051 C 
BRANCH  33  34
HETATM   34  C   UNK     0     -16.755  -0.455  12.439  0.00  0.00     0.114 C 
BRANCH  34  35
HETATM   35  C   UNK     0     -18.124  -0.712  12.973  0.00  0.00     0.139 C 
HETATM   36  O   UNK     0     -18.286  -1.478  13.967  0.00  0.00    -0.650 OA
BRANCH  35  37
HETATM   37  O   UNK     0     -19.263  -0.137  12.423  0.00  0.00    -0.776 OA
HETATM   38  H   UNK     0     -19.448   0.851  12.489  0.00  0.00     0.167 HD
ENDBRANCH  35  37
ENDBRANCH  34  35
ENDBRANCH  33  34
ENDBRANCH   6  33
BRANCH  27  39
HETATM   39  C   UNK     0     -10.805   7.550  11.667  0.00  0.00     0.051 C 
BRANCH  39  40
HETATM   40  C   UNK     0     -11.485   8.416  12.631  0.00  0.00     0.114 C 
BRANCH  40  41
HETATM   41  C   UNK     0     -10.765   9.159  13.641  0.00  0.00     0.139 C 
HETATM   42  O   UNK     0      -9.794   9.886  13.392  0.00  0.00    -0.650 OA
BRANCH  41  43
HETATM   43  O   UNK     0     -11.182   9.062  14.999  0.00  0.00    -0.776 OA
HETATM   44  H   UNK     0     -11.392   9.950  15.437  0.00  0.00     0.167 HD
ENDBRANCH  41  43
ENDBRANCH  40  41
ENDBRANCH  39  40
ENDBRANCH  27  39
BRANCH  11  45
HETATM   45  C   UNK     0     -11.530   0.398  18.992  0.00  0.00     0.051 C 
BRANCH  45  46
HETATM   46  C   UNK     0     -10.058   0.586  18.930  0.00  0.00     0.114 C 
BRANCH  46  47
HETATM   47  C   UNK     0      -9.601   0.063  17.611  0.00  0.00     0.139 C 
HETATM   48  O   UNK     0      -9.211   0.870  16.756  0.00  0.00    -0.650 OA
BRANCH  47  49
HETATM   49  O   UNK     0      -9.614  -1.284  17.347  0.00  0.00    -0.776 OA
HETATM   50  H   UNK     0     -10.156  -1.946  17.914  0.00  0.00     0.167 HD
ENDBRANCH  47  49
ENDBRANCH  46  47
ENDBRANCH  45  46
ENDBRANCH  11  45
BRANCH  18  51
HETATM   51  C   UNK     0      -7.405   5.304  16.222  0.00  0.00     0.051 C 
BRANCH  51  52
HETATM   52  C   UNK     0      -7.309   6.691  16.841  0.00  0.00     0.114 C 
BRANCH  52  53
HETATM   53  C   UNK     0      -6.949   7.715  15.841  0.00  0.00     0.139 C 
HETATM   54  O   UNK     0      -7.664   8.719  15.694  0.00  0.00    -0.650 OA
BRANCH  53  55
HETATM   55  O   UNK     0      -5.822   7.548  15.073  0.00  0.00    -0.776 OA
HETATM   56  H   UNK     0      -5.801   7.296  14.113  0.00  0.00     0.167 HD
ENDBRANCH  53  55
ENDBRANCH  52  53
ENDBRANCH  51  52
ENDBRANCH  18  51
TORSDOF 16
ENDMDL
MODEL 19
REMARK VINA RESULT:      -7.3     19.841     22.748
REMARK  16 active torsions:
REMARK  status: ('A' for Active; 'I' for Inactive)
REMARK    1  A    between atoms: C_6  and  C_7 
REMARK    2  A    between atoms: C_7  and  C_8 
REMARK    3  A    between atoms: C_8  and  C_9 
REMARK    4  A    between atoms: C_9  and  O_11 
REMARK    5  A    between atoms: C_16  and  C_17 
REMARK    6  A    between atoms: C_17  and  C_18 
REMARK    7  A    between atoms: C_18  and  C_19 
REMARK    8  A    between atoms: C_19  and  O_21 
REMARK    9  A    between atoms: C_28  and  C_29 
REMARK   10  A    between atoms: C_29  and  C_30 
REMARK   11  A    between atoms: C_30  and  C_31 
REMARK   12  A    between atoms: C_31  and  O_33 
REMARK   13  A    between atoms: C_42  and  C_43 
REMARK   14  A    between atoms: C_43  and  C_44 
REMARK   15  A    between atoms: C_44  and  C_45 
REMARK   16  A    between atoms: C_45  and  O_47 
ROOT
HETATM    1  C   UNK     0     -10.376  -2.218  20.798  0.00  0.00     0.051 C 
HETATM    2  C   UNK     0     -10.681  -2.058  19.322  0.00  0.00    -0.031 A 
HETATM    3  C   UNK     0     -11.392  -2.894  18.476  0.00  0.00     0.021 A 
HETATM    4  N   UNK     0     -11.386  -2.367  17.228  0.00  0.00    -0.361 N 
HETATM    5  C   UNK     0     -10.693  -1.210  17.263  0.00  0.00     0.022 A 
HETATM    6  C   UNK     0     -10.235  -0.988  18.557  0.00  0.00    -0.027 A 
HETATM    7  C   UNK     0     -10.470  -0.201  16.180  0.00  0.00     0.115 C 
HETATM    8  C   UNK     0     -11.667   0.140  15.310  0.00  0.00     0.021 A 
HETATM    9  N   UNK     0     -12.959   0.227  15.661  0.00  0.00    -0.361 N 
HETATM   10  C   UNK     0     -13.682   0.464  14.546  0.00  0.00     0.022 A 
HETATM   11  C   UNK     0     -12.831   0.540  13.447  0.00  0.00    -0.027 A 
HETATM   12  C   UNK     0     -11.560   0.337  13.921  0.00  0.00    -0.031 A 
HETATM   13  C   UNK     0     -10.303   0.338  13.080  0.00  0.00     0.051 C 
HETATM   14  C   UNK     0     -15.202   0.573  14.464  0.00  0.00     0.115 C 
HETATM   15  C   UNK     0     -15.934  -0.686  14.897  0.00  0.00     0.021 A 
HETATM   16  N   UNK     0     -15.867  -1.307  16.089  0.00  0.00    -0.361 N 
HETATM   17  C   UNK     0     -16.604  -2.419  16.048  0.00  0.00     0.022 A 
HETATM   18  C   UNK     0     -17.188  -2.523  14.769  0.00  0.00    -0.027 A 
HETATM   19  C   UNK     0     -16.761  -1.431  14.059  0.00  0.00    -0.031 A 
HETATM   20  C   UNK     0     -17.188  -1.133  12.633  0.00  0.00     0.051 C 
HETATM   21  C   UNK     0     -16.801  -3.494  17.092  0.00  0.00     0.115 C 
HETATM   22  C   UNK     0     -15.633  -3.813  17.994  0.00  0.00     0.022 A 
HETATM   23  N   UNK     0     -14.336  -3.902  17.672  0.00  0.00    -0.361 N 
HETATM   24  C   UNK     0     -13.627  -4.060  18.808  0.00  0.00     0.021 A 
HETATM   25  C   UNK     0     -14.490  -4.083  19.887  0.00  0.00    -0.031 A 
HETATM   26  C   UNK     0     -14.174  -4.278  21.356  0.00  0.00     0.051 C 
HETATM   27  C   UNK     0     -15.779  -3.927  19.392  0.00  0.00    -0.027 A 
HETATM   28  C   UNK     0     -12.117  -4.117  18.962  0.00  0.00     0.115 C 
HETATM   29  H   UNK     0     -11.837  -2.837  16.323  0.00  0.00     0.165 HD
HETATM   30  H   UNK     0     -13.359   0.172  16.703  0.00  0.00     0.165 HD
HETATM   31  H   UNK     0     -15.326  -0.928  16.996  0.00  0.00     0.165 HD
HETATM   32  H   UNK     0     -13.911  -3.898  16.634  0.00  0.00     0.165 HD
ENDROOT
BRANCH   6  33
HETATM   33  C   UNK     0      -9.415   0.148  19.115  0.00  0.00     0.051 C 
BRANCH  33  34
HETATM   34  C   UNK     0     -10.310   1.235  19.663  0.00  0.00     0.114 C 
BRANCH  34  35
HETATM   35  C   UNK     0     -10.240   2.388  18.720  0.00  0.00     0.139 C 
HETATM   36  O   UNK     0     -11.253   2.710  18.033  0.00  0.00    -0.650 OA
BRANCH  35  37
HETATM   37  O   UNK     0      -9.092   3.152  18.554  0.00  0.00    -0.776 OA
HETATM   38  H   UNK     0      -9.115   4.159  18.549  0.00  0.00     0.167 HD
ENDBRANCH  35  37
ENDBRANCH  34  35
ENDBRANCH  33  34
ENDBRANCH   6  33
BRANCH  27  39
HETATM   39  C   UNK     0     -16.990  -3.973  20.255  0.00  0.00     0.051 C 
BRANCH  39  40
HETATM   40  C   UNK     0     -17.505  -2.715  20.795  0.00  0.00     0.114 C 
BRANCH  40  41
HETATM   41  C   UNK     0     -17.045  -1.428  20.324  0.00  0.00     0.139 C 
HETATM   42  O   UNK     0     -17.533  -0.843  19.348  0.00  0.00    -0.650 OA
BRANCH  41  43
HETATM   43  O   UNK     0     -15.973  -0.785  21.007  0.00  0.00    -0.776 OA
HETATM   44  H   UNK     0     -15.053  -1.017  20.655  0.00  0.00     0.167 HD
ENDBRANCH  41  43
ENDBRANCH  40  41
ENDBRANCH  39  40
ENDBRANCH  27  39
BRANCH  11  45
HETATM   45  C   UNK     0     -13.177   0.795  12.005  0.00  0.00     0.051 C 
BRANCH  45  46
HETATM   46  C   UNK     0     -13.362   2.230  11.670  0.00  0.00     0.114 C 
BRANCH  46  47
HETATM   47  C   UNK     0     -14.649   2.348  10.927  0.00  0.00     0.139 C 
HETATM   48  O   UNK     0     -14.887   3.400  10.317  0.00  0.00    -0.650 OA
BRANCH  47  49
HETATM   49  O   UNK     0     -15.553   1.315  10.920  0.00  0.00    -0.776 OA
HETATM   50  H   UNK     0     -15.734   0.743  11.753  0.00  0.00     0.167 HD
ENDBRANCH  47  49
ENDBRANCH  46  47
ENDBRANCH  45  46
ENDBRANCH  11  45
BRANCH  18  51
HETATM   51  C   UNK     0     -18.118  -3.593  14.260  0.00  0.00     0.051 C 
BRANCH  51  52
HETATM   52  C   UNK     0     -17.236  -4.658  13.625  0.00  0.00     0.114 C 
BRANCH  52  53
HETATM   53  C   UNK     0     -17.417  -5.975  14.265  0.00  0.00     0.139 C 
HETATM   54  O   UNK     0     -18.512  -6.277  14.766  0.00  0.00    -0.650 OA
BRANCH  53  55
HETATM   55  O   UNK     0     -16.368  -6.861  14.304  0.00  0.00    -0.776 OA
HETATM   56  H   UNK     0     -15.672  -6.911  15.011  0.00  0.00     0.167 HD
ENDBRANCH  53  55
ENDBRANCH  52  53
ENDBRANCH  51  52
ENDBRANCH  18  51
TORSDOF 16
ENDMDL
MODEL 20
REMARK VINA RESULT:      -7.3     29.360     31.720
REMARK  16 active torsions:
REMARK  status: ('A' for Active; 'I' for Inactive)
REMARK    1  A    between atoms: C_6  and  C_7 
REMARK    2  A    between atoms: C_7  and  C_8 
REMARK    3  A    between atoms: C_8  and  C_9 
REMARK    4  A    between atoms: C_9  and  O_11 
REMARK    5  A    between atoms: C_16  and  C_17 
REMARK    6  A    between atoms: C_17  and  C_18 
REMARK    7  A    between atoms: C_18  and  C_19 
REMARK    8  A    between atoms: C_19  and  O_21 
REMARK    9  A    between atoms: C_28  and  C_29 
REMARK   10  A    between atoms: C_29  and  C_30 
REMARK   11  A    between atoms: C_30  and  C_31 
REMARK   12  A    between atoms: C_31  and  O_33 
REMARK   13  A    between atoms: C_42  and  C_43 
REMARK   14  A    between atoms: C_43  and  C_44 
REMARK   15  A    between atoms: C_44  and  C_45 
REMARK   16  A    between atoms: C_45  and  O_47 
ROOT
HETATM    1  C   UNK     0     -11.163  -2.077 -10.905  0.00  0.00     0.051 C 
HETATM    2  C   UNK     0     -11.664  -0.654 -11.045  0.00  0.00    -0.031 A 
HETATM    3  C   UNK     0     -11.660   0.375 -10.117  0.00  0.00     0.021 A 
HETATM    4  N   UNK     0     -12.238   1.469 -10.667  0.00  0.00    -0.361 N 
HETATM    5  C   UNK     0     -12.603   1.161 -11.929  0.00  0.00     0.022 A 
HETATM    6  C   UNK     0     -12.261  -0.160 -12.197  0.00  0.00    -0.027 A 
HETATM    7  C   UNK     0     -13.193   2.038 -12.990  0.00  0.00     0.115 C 
HETATM    8  C   UNK     0     -12.602   3.429 -13.131  0.00  0.00     0.021 A 
HETATM    9  N   UNK     0     -11.326   3.816 -12.974  0.00  0.00    -0.361 N 
HETATM   10  C   UNK     0     -11.276   5.158 -13.104  0.00  0.00     0.022 A 
HETATM   11  C   UNK     0     -12.552   5.649 -13.361  0.00  0.00    -0.027 A 
HETATM   12  C   UNK     0     -13.392   4.565 -13.380  0.00  0.00    -0.031 A 
HETATM   13  C   UNK     0     -14.883   4.619 -13.630  0.00  0.00     0.051 C 
HETATM   14  C   UNK     0     -10.037   6.034 -12.939  0.00  0.00     0.115 C 
HETATM   15  C   UNK     0      -9.408   5.958 -11.557  0.00  0.00     0.021 A 
HETATM   16  N   UNK     0      -8.936   4.865 -10.928  0.00  0.00    -0.361 N 
HETATM   17  C   UNK     0      -8.531   5.205  -9.703  0.00  0.00     0.022 A 
HETATM   18  C   UNK     0      -8.740   6.587  -9.528  0.00  0.00    -0.027 A 
HETATM   19  C   UNK     0      -9.288   7.047 -10.697  0.00  0.00    -0.031 A 
HETATM   20  C   UNK     0      -9.639   8.502 -10.949  0.00  0.00     0.051 C 
HETATM   21  C   UNK     0      -7.993   4.343  -8.583  0.00  0.00     0.115 C 
HETATM   22  C   UNK     0      -8.541   2.940  -8.458  0.00  0.00     0.022 A 
HETATM   23  N   UNK     0      -9.805   2.526  -8.613  0.00  0.00    -0.361 N 
HETATM   24  C   UNK     0      -9.820   1.179  -8.557  0.00  0.00     0.021 A 
HETATM   25  C   UNK     0      -8.535   0.715  -8.350  0.00  0.00    -0.031 A 
HETATM   26  C   UNK     0      -8.052  -0.710  -8.178  0.00  0.00     0.051 C 
HETATM   27  C   UNK     0      -7.699   1.824  -8.283  0.00  0.00    -0.027 A 
HETATM   28  C   UNK     0     -11.004   0.252  -8.770  0.00  0.00     0.115 C 
HETATM   29  H   UNK     0     -12.420   2.438 -10.147  0.00  0.00     0.165 HD
HETATM   30  H   UNK     0     -10.451   3.138 -12.820  0.00  0.00     0.165 HD
HETATM   31  H   UNK     0      -8.843   3.841 -11.375  0.00  0.00     0.165 HD
HETATM   32  H   UNK     0     -10.707   3.184  -8.721  0.00  0.00     0.165 HD
ENDROOT
BRANCH   6  33
HETATM   33  C   UNK     0     -12.458  -0.978 -13.448  0.00  0.00     0.051 C 
BRANCH  33  34
HETATM   34  C   UNK     0     -13.849  -1.565 -13.490  0.00  0.00     0.114 C 
BRANCH  34  35
HETATM   35  C   UNK     0     -13.724  -2.980 -13.944  0.00  0.00     0.139 C 
HETATM   36  O   UNK     0     -13.664  -3.918 -13.097  0.00  0.00    -0.650 OA
BRANCH  35  37
HETATM   37  O   UNK     0     -13.669  -3.333 -15.287  0.00  0.00    -0.776 OA
HETATM   38  H   UNK     0     -12.915  -3.040 -15.887  0.00  0.00     0.167 HD
ENDBRANCH  35  37
ENDBRANCH  34  35
ENDBRANCH  33  34
ENDBRANCH   6  33
BRANCH  27  39
HETATM   39  C   UNK     0      -6.242   1.724  -7.997  0.00  0.00     0.051 C 
BRANCH  39  40
HETATM   40  C   UNK     0      -5.307   1.797  -9.120  0.00  0.00     0.114 C 
BRANCH  40  41
HETATM   41  C   UNK     0      -5.752   1.781 -10.495  0.00  0.00     0.139 C 
HETATM   42  O   UNK     0      -6.008   0.741 -11.118  0.00  0.00    -0.650 OA
BRANCH  41  43
HETATM   43  O   UNK     0      -5.911   3.016 -11.185  0.00  0.00    -0.776 OA
HETATM   44  H   UNK     0      -5.801   3.838 -10.604  0.00  0.00     0.167 HD
ENDBRANCH  41  43
ENDBRANCH  40  41
ENDBRANCH  39  40
ENDBRANCH  27  39
BRANCH  11  45
HETATM   45  C   UNK     0     -12.986   7.073 -13.587  0.00  0.00     0.051 C 
BRANCH  45  46
HETATM   46  C   UNK     0     -14.010   7.554 -12.624  0.00  0.00     0.114 C 
BRANCH  46  47
HETATM   47  C   UNK     0     -13.310   7.838 -11.339  0.00  0.00     0.139 C 
HETATM   48  O   UNK     0     -12.975   9.005 -11.092  0.00  0.00    -0.650 OA
BRANCH  47  49
HETATM   49  O   UNK     0     -13.040   6.830 -10.448  0.00  0.00    -0.776 OA
HETATM   50  H   UNK     0     -13.564   5.946 -10.449  0.00  0.00     0.167 HD
ENDBRANCH  47  49
ENDBRANCH  46  47
ENDBRANCH  45  46
ENDBRANCH  11  45
BRANCH  18  51
HETATM   51  C   UNK     0      -8.414   7.428  -8.320  0.00  0.00     0.051 C 
BRANCH  51  52
HETATM   52  C   UNK     0      -9.521   7.168  -7.310  0.00  0.00     0.114 C 
BRANCH  52  53
HETATM   53  C   UNK     0      -9.243   7.813  -6.012  0.00  0.00     0.139 C 
HETATM   54  O   UNK     0      -8.403   7.321  -5.241  0.00  0.00    -0.650 OA
BRANCH  53  55
HETATM   55  O   UNK     0      -9.920   8.956  -5.662  0.00  0.00    -0.776 OA
HETATM   56  H   UNK     0      -9.997   9.332  -4.746  0.00  0.00     0.167 HD
ENDBRANCH  53  55
ENDBRANCH  52  53
ENDBRANCH  51  52
ENDBRANCH  18  51
TORSDOF 16
ENDMDL
