MODEL 1
REMARK VINA RESULT:     -10.4      0.000      0.000
REMARK  28 active torsions:
REMARK  status: ('A' for Active; 'I' for Inactive)
REMARK    1  A    between atoms: C_2  and  O_3 
REMARK    2  A    between atoms: C_2  and  C_4 
REMARK    3  A    between atoms: C_4  and  C_5 
REMARK    4  A    between atoms: C_5  and  C_6 
REMARK    5  A    between atoms: C_7  and  C_8 
REMARK    6  A    between atoms: C_8  and  C_9 
REMARK    7  A    between atoms: C_9  and  O_11 
REMARK    8  A    between atoms: C_28  and  C_29 
REMARK    9  A    between atoms: C_29  and  C_30 
REMARK   10  A    between atoms: C_30  and  O_32 
REMARK   11  A    between atoms: C_33  and  C_34 
REMARK   12  A    between atoms: C_34  and  C_35 
REMARK   13  A    between atoms: C_35  and  C_36 
REMARK   14  A    between atoms: C_36  and  O_38 
REMARK   15  A    between atoms: C_39  and  C_40 
REMARK   16  A    between atoms: C_40  and  C_41 
REMARK   17  A    between atoms: C_41  and  C_42 
REMARK   18  A    between atoms: C_42  and  O_44 
REMARK   19  A    between atoms: C_45  and  C_46 
REMARK   20  A    between atoms: C_46  and  C_47 
REMARK   21  A    between atoms: C_47  and  O_49 
REMARK   22  A    between atoms: C_50  and  C_51 
REMARK   23  A    between atoms: C_51  and  C_52 
REMARK   24  A    between atoms: C_52  and  O_54 
REMARK   25  A    between atoms: C_55  and  C_56 
REMARK   26  A    between atoms: C_56  and  C_57 
REMARK   27  A    between atoms: C_57  and  C_58 
REMARK   28  A    between atoms: C_58  and  O_60 
ROOT
ATOM      1  O   UNK d   0      18.749  25.712  -7.318  0.00  0.00    -0.650 OA
ATOM      2  C   UNK d   0      18.021  26.653  -6.929  0.00  0.00     0.139 C 
ENDROOT
BRANCH   2   3
ATOM      3  O   UNK d   0      18.463  27.947  -7.066  0.00  0.00    -0.776 OA
ATOM      4  H   UNK d   0      19.116  28.205  -7.808  0.00  0.00     0.167 HD
ENDBRANCH   2   3
BRANCH   2   5
ATOM      5  C   UNK d   0      16.690  26.368  -6.322  0.00  0.00     0.115 C 
BRANCH   5   6
ATOM      6  C   UNK d   0      16.822  25.316  -5.254  0.00  0.00     0.052 C 
BRANCH   6   7
ATOM      7  C   UNK d   0      15.520  24.603  -4.977  0.00  0.00    -0.020 A 
ATOM      8  C   UNK d   0      14.766  24.703  -3.912  0.00  0.00    -0.011 A 
ATOM      9  C   UNK d   0      13.623  23.824  -4.093  0.00  0.00     0.067 A 
ATOM     10  C   UNK d   0      12.473  23.494  -3.358  0.00  0.00     0.062 C 
ATOM     11  N   UNK d   0      13.765  23.223  -5.293  0.00  0.00    -0.248 NA
ATOM     12  C   UNK d   0      11.333  22.828  -3.821  0.00  0.00     0.041 A 
ATOM     13  N   UNK d   0      11.199  21.752  -4.620  0.00  0.00    -0.355 N 
ATOM     14  C   UNK d   0      10.065  23.335  -3.485  0.00  0.00    -0.022 A 
ATOM     15  C   UNK d   0       9.878  21.569  -4.806  0.00  0.00     0.042 A 
ATOM     16  H   UNK d   0      12.020  21.124  -5.029  0.00  0.00     0.166 HD
ATOM     17  C   UNK d   0       9.187  20.593  -5.552  0.00  0.00     0.062 C 
ATOM     18  C   UNK d   0       9.135  22.542  -4.110  0.00  0.00    -0.013 A 
ATOM     19  C   UNK d   0       9.448  20.128  -6.816  0.00  0.00     0.067 A 
ATOM     20  N   UNK d   0      10.613  20.484  -7.362  0.00  0.00    -0.248 NA
ATOM     21  C   UNK d   0       8.749  19.311  -7.793  0.00  0.00    -0.011 A 
ATOM     22  C   UNK d   0      10.726  19.960  -8.627  0.00  0.00     0.066 A 
ATOM     23  C   UNK d   0      11.911  20.222  -9.298  0.00  0.00     0.062 C 
ATOM     24  C   UNK d   0       9.500  19.220  -8.852  0.00  0.00    -0.020 A 
ATOM     25  C   UNK d   0      13.050  20.882  -8.810  0.00  0.00     0.041 A 
ATOM     26  N   UNK d   0      13.184  21.959  -8.028  0.00  0.00    -0.355 N 
ATOM     27  C   UNK d   0      14.322  20.369  -9.144  0.00  0.00    -0.022 A 
ATOM     28  C   UNK d   0      14.501  22.149  -7.848  0.00  0.00     0.042 A 
ATOM     29  H   UNK d   0      12.358  22.596  -7.627  0.00  0.00     0.166 HD
ATOM     30  C   UNK d   0      15.201  23.122  -7.118  0.00  0.00     0.062 C 
ATOM     31  C   UNK d   0      15.246  21.165  -8.539  0.00  0.00    -0.013 A 
ATOM     32  C   UNK d   0      14.886  23.650  -5.876  0.00  0.00     0.066 A 
BRANCH   8  33
ATOM     33  C   UNK d   0      15.015  25.545  -2.728  0.00  0.00     0.151 C 
BRANCH  33  34
ATOM     34  C   UNK d   0      14.607  26.947  -2.929  0.00  0.00     0.143 C 
ATOM     35  O   UNK d   0      15.413  27.790  -3.349  0.00  0.00    -0.650 OA
BRANCH  34  36
ATOM     36  O   UNK d   0      13.315  27.322  -2.643  0.00  0.00    -0.776 OA
ATOM     37  H   UNK d   0      12.807  27.988  -3.242  0.00  0.00     0.167 HD
ENDBRANCH  34  36
ENDBRANCH  33  34
ENDBRANCH   8  33
BRANCH  31  38
ATOM     38  C   UNK d   0      16.746  20.995  -8.601  0.00  0.00     0.151 C 
BRANCH  38  39
ATOM     39  C   UNK d   0      17.396  22.025  -9.383  0.00  0.00     0.143 C 
ATOM     40  O   UNK d   0      17.291  23.234  -9.111  0.00  0.00    -0.650 OA
BRANCH  39  41
ATOM     41  O   UNK d   0      18.172  21.663 -10.484  0.00  0.00    -0.776 OA
ATOM     42  H   UNK d   0      17.901  20.807 -10.978  0.00  0.00     0.167 HD
ENDBRANCH  39  41
ENDBRANCH  38  39
ENDBRANCH  31  38
BRANCH  27  43
ATOM     43  C   UNK d   0      14.682  19.180  -9.999  0.00  0.00     0.052 C 
BRANCH  43  44
ATOM     44  C   UNK d   0      15.146  18.001  -9.207  0.00  0.00     0.115 C 
BRANCH  44  45
ATOM     45  C   UNK d   0      16.455  17.593  -9.779  0.00  0.00     0.139 C 
ATOM     46  O   UNK d   0      17.456  17.587  -9.021  0.00  0.00    -0.650 OA
BRANCH  45  47
ATOM     47  O   UNK d   0      16.611  17.219 -11.097  0.00  0.00    -0.776 OA
ATOM     48  H   UNK d   0      16.152  17.715 -11.878  0.00  0.00     0.167 HD
ENDBRANCH  45  47
ENDBRANCH  44  45
ENDBRANCH  43  44
ENDBRANCH  27  43
BRANCH  24  49
ATOM     49  C   UNK d   0       9.194  18.452 -10.071  0.00  0.00     0.052 C 
BRANCH  49  50
ATOM     50  C   UNK d   0       7.908  18.939 -10.689  0.00  0.00     0.115 C 
BRANCH  50  51
ATOM     51  C   UNK d   0       7.947  20.221 -11.381  0.00  0.00     0.139 C 
ATOM     52  O   UNK d   0       8.890  21.035 -11.244  0.00  0.00    -0.650 OA
BRANCH  51  53
ATOM     53  O   UNK d   0       6.908  20.574 -12.229  0.00  0.00    -0.776 OA
ATOM     54  H   UNK d   0       6.209  19.883 -12.438  0.00  0.00     0.167 HD
ENDBRANCH  51  53
ENDBRANCH  50  51
ENDBRANCH  49  50
ENDBRANCH  24  49
BRANCH  21  55
ATOM     55  C   UNK d   0       7.404  18.703  -7.565  0.00  0.00     0.151 C 
BRANCH  55  56
ATOM     56  C   UNK d   0       6.750  19.246  -6.365  0.00  0.00     0.143 C 
ATOM     57  O   UNK d   0       5.983  20.229  -6.400  0.00  0.00    -0.650 OA
BRANCH  56  58
ATOM     58  O   UNK d   0       7.010  18.623  -5.146  0.00  0.00    -0.776 OA
ATOM     59  H   UNK d   0       6.429  18.953  -4.354  0.00  0.00     0.167 HD
ENDBRANCH  56  58
ENDBRANCH  55  56
ENDBRANCH  21  55
BRANCH  18  60
ATOM     60  C   UNK d   0       7.641  22.734  -4.028  0.00  0.00     0.151 C 
BRANCH  60  61
ATOM     61  C   UNK d   0       7.125  21.571  -3.291  0.00  0.00     0.143 C 
ATOM     62  O   UNK d   0       7.688  20.958  -2.383  0.00  0.00    -0.650 OA
BRANCH  61  63
ATOM     63  O   UNK d   0       5.839  21.129  -3.686  0.00  0.00    -0.776 OA
ATOM     64  H   UNK d   0       5.644  20.890  -4.642  0.00  0.00     0.167 HD
ENDBRANCH  61  63
ENDBRANCH  60  61
ENDBRANCH  18  60
BRANCH  14  65
ATOM     65  C   UNK d   0       9.667  24.440  -2.549  0.00  0.00     0.052 C 
BRANCH  65  66
ATOM     66  C   UNK d   0      10.182  25.772  -2.968  0.00  0.00     0.115 C 
BRANCH  66  67
ATOM     67  C   UNK d   0       9.892  26.930  -2.171  0.00  0.00     0.139 C 
ATOM     68  O   UNK d   0       8.703  27.417  -2.206  0.00  0.00    -0.650 OA
BRANCH  67  69
ATOM     69  O   UNK d   0      10.761  27.627  -1.331  0.00  0.00    -0.776 OA
ATOM     70  H   UNK d   0      11.761  27.409  -1.442  0.00  0.00     0.167 HD
ENDBRANCH  67  69
ENDBRANCH  66  67
ENDBRANCH  65  66
ENDBRANCH  14  65
ENDBRANCH   6   7
ENDBRANCH   5   6
ENDBRANCH   2   5
TORSDOF 28
ENDMDL
MODEL 2
REMARK VINA RESULT:     -10.2      1.793      4.993
REMARK  28 active torsions:
REMARK  status: ('A' for Active; 'I' for Inactive)
REMARK    1  A    between atoms: C_2  and  O_3 
REMARK    2  A    between atoms: C_2  and  C_4 
REMARK    3  A    between atoms: C_4  and  C_5 
REMARK    4  A    between atoms: C_5  and  C_6 
REMARK    5  A    between atoms: C_7  and  C_8 
REMARK    6  A    between atoms: C_8  and  C_9 
REMARK    7  A    between atoms: C_9  and  O_11 
REMARK    8  A    between atoms: C_28  and  C_29 
REMARK    9  A    between atoms: C_29  and  C_30 
REMARK   10  A    between atoms: C_30  and  O_32 
REMARK   11  A    between atoms: C_33  and  C_34 
REMARK   12  A    between atoms: C_34  and  C_35 
REMARK   13  A    between atoms: C_35  and  C_36 
REMARK   14  A    between atoms: C_36  and  O_38 
REMARK   15  A    between atoms: C_39  and  C_40 
REMARK   16  A    between atoms: C_40  and  C_41 
REMARK   17  A    between atoms: C_41  and  C_42 
REMARK   18  A    between atoms: C_42  and  O_44 
REMARK   19  A    between atoms: C_45  and  C_46 
REMARK   20  A    between atoms: C_46  and  C_47 
REMARK   21  A    between atoms: C_47  and  O_49 
REMARK   22  A    between atoms: C_50  and  C_51 
REMARK   23  A    between atoms: C_51  and  C_52 
REMARK   24  A    between atoms: C_52  and  O_54 
REMARK   25  A    between atoms: C_55  and  C_56 
REMARK   26  A    between atoms: C_56  and  C_57 
REMARK   27  A    between atoms: C_57  and  C_58 
REMARK   28  A    between atoms: C_58  and  O_60 
ROOT
ATOM      1  O   UNK d   0      19.288  22.152 -11.258  0.00  0.00    -0.650 OA
ATOM      2  C   UNK d   0      19.095  23.293 -10.781  0.00  0.00     0.139 C 
ENDROOT
BRANCH   2   3
ATOM      3  O   UNK d   0      18.920  24.358 -11.632  0.00  0.00    -0.776 OA
ATOM      4  H   UNK d   0      19.476  24.449 -12.484  0.00  0.00     0.167 HD
ENDBRANCH   2   3
BRANCH   2   5
ATOM      5  C   UNK d   0      19.058  23.490  -9.305  0.00  0.00     0.115 C 
BRANCH   5   6
ATOM      6  C   UNK d   0      18.511  24.853  -8.978  0.00  0.00     0.052 C 
BRANCH   6   7
ATOM      7  C   UNK d   0      17.583  24.837  -7.787  0.00  0.00    -0.020 A 
ATOM      8  C   UNK d   0      17.755  25.427  -6.632  0.00  0.00    -0.011 A 
ATOM      9  C   UNK d   0      16.604  25.121  -5.800  0.00  0.00     0.067 A 
ATOM     10  C   UNK d   0      16.174  25.451  -4.505  0.00  0.00     0.062 C 
ATOM     11  N   UNK d   0      15.783  24.333  -6.525  0.00  0.00    -0.248 NA
ATOM     12  C   UNK d   0      14.892  25.286  -3.970  0.00  0.00     0.041 A 
ATOM     13  N   UNK d   0      14.019  24.264  -4.059  0.00  0.00    -0.355 N 
ATOM     14  C   UNK d   0      14.317  26.344  -3.243  0.00  0.00    -0.022 A 
ATOM     15  C   UNK d   0      12.902  24.650  -3.414  0.00  0.00     0.042 A 
ATOM     16  H   UNK d   0      14.197  23.283  -4.550  0.00  0.00     0.166 HD
ATOM     17  C   UNK d   0      11.687  23.968  -3.204  0.00  0.00     0.062 C 
ATOM     18  C   UNK d   0      13.050  25.949  -2.890  0.00  0.00    -0.013 A 
ATOM     19  C   UNK d   0      10.942  23.239  -4.096  0.00  0.00     0.067 A 
ATOM     20  N   UNK d   0      11.512  22.955  -5.270  0.00  0.00    -0.248 NA
ATOM     21  C   UNK d   0       9.607  22.664  -4.118  0.00  0.00    -0.011 A 
ATOM     22  C   UNK d   0      10.647  22.238  -6.059  0.00  0.00     0.066 A 
ATOM     23  C   UNK d   0      11.127  21.842  -7.298  0.00  0.00     0.062 C 
ATOM     24  C   UNK d   0       9.439  22.083  -5.271  0.00  0.00    -0.020 A 
ATOM     25  C   UNK d   0      12.422  22.006  -7.812  0.00  0.00     0.041 A 
ATOM     26  N   UNK d   0      13.284  23.027  -7.736  0.00  0.00    -0.355 N 
ATOM     27  C   UNK d   0      13.001  20.942  -8.537  0.00  0.00    -0.022 A 
ATOM     28  C   UNK d   0      14.396  22.648  -8.386  0.00  0.00     0.042 A 
ATOM     29  H   UNK d   0      13.101  24.017  -7.251  0.00  0.00     0.166 HD
ATOM     30  C   UNK d   0      15.608  23.319  -8.610  0.00  0.00     0.062 C 
ATOM     31  C   UNK d   0      14.250  21.339  -8.903  0.00  0.00    -0.013 A 
ATOM     32  C   UNK d   0      16.314  24.126  -7.731  0.00  0.00     0.066 A 
BRANCH   8  33
ATOM     33  C   UNK d   0      18.906  26.255  -6.225  0.00  0.00     0.151 C 
BRANCH  33  34
ATOM     34  C   UNK d   0      18.693  27.691  -6.477  0.00  0.00     0.143 C 
ATOM     35  O   UNK d   0      17.711  28.086  -7.122  0.00  0.00    -0.650 OA
BRANCH  34  36
ATOM     36  O   UNK d   0      19.599  28.604  -5.989  0.00  0.00    -0.776 OA
ATOM     37  H   UNK d   0      19.301  29.539  -5.679  0.00  0.00     0.167 HD
ENDBRANCH  34  36
ENDBRANCH  33  34
ENDBRANCH   8  33
BRANCH  31  38
ATOM     38  C   UNK d   0      15.252  20.522  -9.686  0.00  0.00     0.151 C 
BRANCH  38  39
ATOM     39  C   UNK d   0      16.081  19.690  -8.841  0.00  0.00     0.143 C 
ATOM     40  O   UNK d   0      15.697  19.276  -7.733  0.00  0.00    -0.650 OA
BRANCH  39  41
ATOM     41  O   UNK d   0      17.357  19.330  -9.272  0.00  0.00    -0.776 OA
ATOM     42  H   UNK d   0      17.952  20.084  -9.631  0.00  0.00     0.167 HD
ENDBRANCH  39  41
ENDBRANCH  38  39
ENDBRANCH  31  38
BRANCH  27  43
ATOM     43  C   UNK d   0      12.421  19.594  -8.887  0.00  0.00     0.052 C 
BRANCH  43  44
ATOM     44  C   UNK d   0      11.425  19.650 -10.000  0.00  0.00     0.115 C 
BRANCH  44  45
ATOM     45  C   UNK d   0      10.256  18.843  -9.564  0.00  0.00     0.139 C 
ATOM     46  O   UNK d   0       9.143  19.079 -10.095  0.00  0.00    -0.650 OA
BRANCH  45  47
ATOM     47  O   UNK d   0      10.347  17.850  -8.612  0.00  0.00    -0.776 OA
ATOM     48  H   UNK d   0      10.761  16.924  -8.806  0.00  0.00     0.167 HD
ENDBRANCH  45  47
ENDBRANCH  44  45
ENDBRANCH  43  44
ENDBRANCH  27  43
BRANCH  24  49
ATOM     49  C   UNK d   0       8.243  21.341  -5.703  0.00  0.00     0.052 C 
BRANCH  49  50
ATOM     50  C   UNK d   0       8.639  20.048  -6.369  0.00  0.00     0.115 C 
BRANCH  50  51
ATOM     51  C   UNK d   0       7.572  19.244  -6.948  0.00  0.00     0.139 C 
ATOM     52  O   UNK d   0       6.385  19.642  -7.016  0.00  0.00    -0.650 OA
BRANCH  51  53
ATOM     53  O   UNK d   0       7.857  17.982  -7.448  0.00  0.00    -0.776 OA
ATOM     54  H   UNK d   0       7.971  17.227  -6.795  0.00  0.00     0.167 HD
ENDBRANCH  51  53
ENDBRANCH  50  51
ENDBRANCH  49  50
ENDBRANCH  24  49
BRANCH  21  55
ATOM     55  C   UNK d   0       8.641  22.752  -2.984  0.00  0.00     0.151 C 
BRANCH  55  56
ATOM     56  C   UNK d   0       8.587  21.503  -2.208  0.00  0.00     0.143 C 
ATOM     57  O   UNK d   0       7.672  20.667  -2.338  0.00  0.00    -0.650 OA
BRANCH  56  58
ATOM     58  O   UNK d   0       9.611  21.263  -1.293  0.00  0.00    -0.776 OA
ATOM     59  H   UNK d   0       9.689  21.961  -0.532  0.00  0.00     0.167 HD
ENDBRANCH  56  58
ENDBRANCH  55  56
ENDBRANCH  21  55
BRANCH  18  60
ATOM     60  C   UNK d   0      12.072  26.786  -2.104  0.00  0.00     0.151 C 
BRANCH  60  61
ATOM     61  C   UNK d   0      11.039  27.206  -3.063  0.00  0.00     0.143 C 
ATOM     62  O   UNK d   0       9.831  26.973  -3.003  0.00  0.00    -0.650 OA
BRANCH  61  63
ATOM     63  O   UNK d   0      11.510  27.960  -4.164  0.00  0.00    -0.776 OA
ATOM     64  H   UNK d   0      11.386  27.634  -5.107  0.00  0.00     0.167 HD
ENDBRANCH  61  63
ENDBRANCH  60  61
ENDBRANCH  18  60
BRANCH  14  65
ATOM     65  C   UNK d   0      14.902  27.647  -2.778  0.00  0.00     0.052 C 
BRANCH  65  66
ATOM     66  C   UNK d   0      15.604  27.536  -1.471  0.00  0.00     0.115 C 
BRANCH  66  67
ATOM     67  C   UNK d   0      17.033  27.407  -1.440  0.00  0.00     0.139 C 
ATOM     68  O   UNK d   0      17.692  27.614  -2.525  0.00  0.00    -0.650 OA
BRANCH  67  69
ATOM     69  O   UNK d   0      17.836  27.072  -0.350  0.00  0.00    -0.776 OA
ATOM     70  H   UNK d   0      17.635  27.575   0.526  0.00  0.00     0.167 HD
ENDBRANCH  67  69
ENDBRANCH  66  67
ENDBRANCH  65  66
ENDBRANCH  14  65
ENDBRANCH   6   7
ENDBRANCH   5   6
ENDBRANCH   2   5
TORSDOF 28
ENDMDL
MODEL 3
REMARK VINA RESULT:     -10.1      2.136      8.288
REMARK  28 active torsions:
REMARK  status: ('A' for Active; 'I' for Inactive)
REMARK    1  A    between atoms: C_2  and  O_3 
REMARK    2  A    between atoms: C_2  and  C_4 
REMARK    3  A    between atoms: C_4  and  C_5 
REMARK    4  A    between atoms: C_5  and  C_6 
REMARK    5  A    between atoms: C_7  and  C_8 
REMARK    6  A    between atoms: C_8  and  C_9 
REMARK    7  A    between atoms: C_9  and  O_11 
REMARK    8  A    between atoms: C_28  and  C_29 
REMARK    9  A    between atoms: C_29  and  C_30 
REMARK   10  A    between atoms: C_30  and  O_32 
REMARK   11  A    between atoms: C_33  and  C_34 
REMARK   12  A    between atoms: C_34  and  C_35 
REMARK   13  A    between atoms: C_35  and  C_36 
REMARK   14  A    between atoms: C_36  and  O_38 
REMARK   15  A    between atoms: C_39  and  C_40 
REMARK   16  A    between atoms: C_40  and  C_41 
REMARK   17  A    between atoms: C_41  and  C_42 
REMARK   18  A    between atoms: C_42  and  O_44 
REMARK   19  A    between atoms: C_45  and  C_46 
REMARK   20  A    between atoms: C_46  and  C_47 
REMARK   21  A    between atoms: C_47  and  O_49 
REMARK   22  A    between atoms: C_50  and  C_51 
REMARK   23  A    between atoms: C_51  and  C_52 
REMARK   24  A    between atoms: C_52  and  O_54 
REMARK   25  A    between atoms: C_55  and  C_56 
REMARK   26  A    between atoms: C_56  and  C_57 
REMARK   27  A    between atoms: C_57  and  C_58 
REMARK   28  A    between atoms: C_58  and  O_60 
ROOT
ATOM      1  O   UNK d   0       7.852  20.805  -1.657  0.00  0.00    -0.650 OA
ATOM      2  C   UNK d   0       8.491  21.384  -2.564  0.00  0.00     0.139 C 
ENDROOT
BRANCH   2   3
ATOM      3  O   UNK d   0       8.106  21.214  -3.872  0.00  0.00    -0.776 OA
ATOM      4  H   UNK d   0       7.487  21.886  -4.331  0.00  0.00     0.167 HD
ENDBRANCH   2   3
BRANCH   2   5
ATOM      5  C   UNK d   0       9.658  22.247  -2.224  0.00  0.00     0.115 C 
BRANCH   5   6
ATOM      6  C   UNK d   0       9.500  23.603  -2.856  0.00  0.00     0.052 C 
BRANCH   6   7
ATOM      7  C   UNK d   0      10.785  24.115  -3.461  0.00  0.00    -0.020 A 
ATOM      8  C   UNK d   0      11.451  25.191  -3.129  0.00  0.00    -0.011 A 
ATOM      9  C   UNK d   0      12.617  25.277  -3.993  0.00  0.00     0.067 A 
ATOM     10  C   UNK d   0      13.709  26.148  -4.136  0.00  0.00     0.062 C 
ATOM     11  N   UNK d   0      12.578  24.216  -4.825  0.00  0.00    -0.248 NA
ATOM     12  C   UNK d   0      14.891  25.914  -4.847  0.00  0.00     0.041 A 
ATOM     13  N   UNK d   0      15.102  25.361  -6.057  0.00  0.00    -0.355 N 
ATOM     14  C   UNK d   0      16.121  26.235  -4.247  0.00  0.00    -0.022 A 
ATOM     15  C   UNK d   0      16.436  25.315  -6.235  0.00  0.00     0.042 A 
ATOM     16  H   UNK d   0      14.324  25.027  -6.778  0.00  0.00     0.166 HD
ATOM     17  C   UNK d   0      17.196  24.836  -7.321  0.00  0.00     0.062 C 
ATOM     18  C   UNK d   0      17.109  25.854  -5.121  0.00  0.00    -0.013 A 
ATOM     19  C   UNK d   0      17.043  23.676  -8.036  0.00  0.00     0.067 A 
ATOM     20  N   UNK d   0      15.919  22.983  -7.830  0.00  0.00    -0.248 NA
ATOM     21  C   UNK d   0      17.828  22.938  -9.011  0.00  0.00    -0.011 A 
ATOM     22  C   UNK d   0      15.914  21.845  -8.600  0.00  0.00     0.066 A 
ATOM     23  C   UNK d   0      14.782  21.048  -8.512  0.00  0.00     0.062 C 
ATOM     24  C   UNK d   0      17.163  21.866  -9.334  0.00  0.00    -0.020 A 
ATOM     25  C   UNK d   0      13.600  21.307  -7.801  0.00  0.00     0.041 A 
ATOM     26  N   UNK d   0      13.390  21.843  -6.593  0.00  0.00    -0.355 N 
ATOM     27  C   UNK d   0      12.365  20.989  -8.407  0.00  0.00    -0.022 A 
ATOM     28  C   UNK d   0      12.061  21.882  -6.409  0.00  0.00     0.042 A 
ATOM     29  H   UNK d   0      14.173  22.168  -5.865  0.00  0.00     0.166 HD
ATOM     30  C   UNK d   0      11.292  22.347  -5.331  0.00  0.00     0.062 C 
ATOM     31  C   UNK d   0      11.386  21.350  -7.533  0.00  0.00    -0.013 A 
ATOM     32  C   UNK d   0      11.501  23.477  -4.556  0.00  0.00     0.066 A 
BRANCH   8  33
ATOM     33  C   UNK d   0      11.098  26.159  -2.074  0.00  0.00     0.151 C 
BRANCH  33  34
ATOM     34  C   UNK d   0       9.834  26.865  -2.348  0.00  0.00     0.143 C 
ATOM     35  O   UNK d   0       9.708  27.580  -3.352  0.00  0.00    -0.650 OA
BRANCH  34  36
ATOM     36  O   UNK d   0       8.781  26.727  -1.473  0.00  0.00    -0.776 OA
ATOM     37  H   UNK d   0       7.942  26.188  -1.727  0.00  0.00     0.167 HD
ENDBRANCH  34  36
ENDBRANCH  33  34
ENDBRANCH   8  33
BRANCH  31  38
ATOM     38  C   UNK d   0       9.898  21.212  -7.755  0.00  0.00     0.151 C 
BRANCH  38  39
ATOM     39  C   UNK d   0       9.357  19.992  -7.193  0.00  0.00     0.143 C 
ATOM     40  O   UNK d   0       8.783  19.136  -7.889  0.00  0.00    -0.650 OA
BRANCH  39  41
ATOM     41  O   UNK d   0       9.477  19.756  -5.824  0.00  0.00    -0.776 OA
ATOM     42  H   UNK d   0       9.085  20.465  -5.197  0.00  0.00     0.167 HD
ENDBRANCH  39  41
ENDBRANCH  38  39
ENDBRANCH  31  38
BRANCH  27  43
ATOM     43  C   UNK d   0      12.089  20.367  -9.753  0.00  0.00     0.052 C 
BRANCH  43  44
ATOM     44  C   UNK d   0      11.722  18.920  -9.672  0.00  0.00     0.115 C 
BRANCH  44  45
ATOM     45  C   UNK d   0      12.967  18.151  -9.930  0.00  0.00     0.139 C 
ATOM     46  O   UNK d   0      13.786  18.612 -10.764  0.00  0.00    -0.650 OA
BRANCH  45  47
ATOM     47  O   UNK d   0      13.259  16.965  -9.292  0.00  0.00    -0.776 OA
ATOM     48  H   UNK d   0      12.690  16.111  -9.411  0.00  0.00     0.167 HD
ENDBRANCH  45  47
ENDBRANCH  44  45
ENDBRANCH  43  44
ENDBRANCH  27  43
BRANCH  24  49
ATOM     49  C   UNK d   0      17.575  20.853 -10.321  0.00  0.00     0.052 C 
BRANCH  49  50
ATOM     50  C   UNK d   0      18.150  19.646  -9.626  0.00  0.00     0.115 C 
BRANCH  50  51
ATOM     51  C   UNK d   0      17.337  18.437  -9.612  0.00  0.00     0.139 C 
ATOM     52  O   UNK d   0      17.091  17.799  -8.561  0.00  0.00    -0.650 OA
BRANCH  51  53
ATOM     53  O   UNK d   0      16.806  17.954 -10.798  0.00  0.00    -0.776 OA
ATOM     54  H   UNK d   0      15.887  18.259 -11.067  0.00  0.00     0.167 HD
ENDBRANCH  51  53
ENDBRANCH  50  51
ENDBRANCH  49  50
ENDBRANCH  24  49
BRANCH  21  55
ATOM     55  C   UNK d   0      19.158  23.383  -9.522  0.00  0.00     0.151 C 
BRANCH  55  56
ATOM     56  C   UNK d   0      19.032  24.268 -10.690  0.00  0.00     0.143 C 
ATOM     57  O   UNK d   0      19.291  23.894 -11.851  0.00  0.00    -0.650 OA
BRANCH  56  58
ATOM     58  O   UNK d   0      18.603  25.576 -10.471  0.00  0.00    -0.776 OA
ATOM     59  H   UNK d   0      17.578  25.716 -10.536  0.00  0.00     0.167 HD
ENDBRANCH  56  58
ENDBRANCH  55  56
ENDBRANCH  21  55
BRANCH  18  60
ATOM     60  C   UNK d   0      18.589  26.007  -4.874  0.00  0.00     0.151 C 
BRANCH  60  61
ATOM     61  C   UNK d   0      19.062  26.994  -5.857  0.00  0.00     0.143 C 
ATOM     62  O   UNK d   0      18.401  27.882  -6.394  0.00  0.00    -0.650 OA
BRANCH  61  63
ATOM     63  O   UNK d   0      20.431  26.889  -6.204  0.00  0.00    -0.776 OA
ATOM     64  H   UNK d   0      20.980  27.707  -6.399  0.00  0.00     0.167 HD
ENDBRANCH  61  63
ENDBRANCH  60  61
ENDBRANCH  18  60
BRANCH  14  65
ATOM     65  C   UNK d   0      16.429  26.956  -2.965  0.00  0.00     0.052 C 
BRANCH  65  66
ATOM     66  C   UNK d   0      16.429  26.060  -1.779  0.00  0.00     0.115 C 
BRANCH  66  67
ATOM     67  C   UNK d   0      17.202  26.412  -0.621  0.00  0.00     0.139 C 
ATOM     68  O   UNK d   0      17.001  25.763   0.472  0.00  0.00    -0.650 OA
BRANCH  67  69
ATOM     69  O   UNK d   0      18.179  27.401  -0.515  0.00  0.00    -0.776 OA
ATOM     70  H   UNK d   0      19.152  27.066  -0.459  0.00  0.00     0.167 HD
ENDBRANCH  67  69
ENDBRANCH  66  67
ENDBRANCH  65  66
ENDBRANCH  14  65
ENDBRANCH   6   7
ENDBRANCH   5   6
ENDBRANCH   2   5
TORSDOF 28
ENDMDL
MODEL 4
REMARK VINA RESULT:      -8.5      1.679      2.144
REMARK  28 active torsions:
REMARK  status: ('A' for Active; 'I' for Inactive)
REMARK    1  A    between atoms: C_2  and  O_3 
REMARK    2  A    between atoms: C_2  and  C_4 
REMARK    3  A    between atoms: C_4  and  C_5 
REMARK    4  A    between atoms: C_5  and  C_6 
REMARK    5  A    between atoms: C_7  and  C_8 
REMARK    6  A    between atoms: C_8  and  C_9 
REMARK    7  A    between atoms: C_9  and  O_11 
REMARK    8  A    between atoms: C_28  and  C_29 
REMARK    9  A    between atoms: C_29  and  C_30 
REMARK   10  A    between atoms: C_30  and  O_32 
REMARK   11  A    between atoms: C_33  and  C_34 
REMARK   12  A    between atoms: C_34  and  C_35 
REMARK   13  A    between atoms: C_35  and  C_36 
REMARK   14  A    between atoms: C_36  and  O_38 
REMARK   15  A    between atoms: C_39  and  C_40 
REMARK   16  A    between atoms: C_40  and  C_41 
REMARK   17  A    between atoms: C_41  and  C_42 
REMARK   18  A    between atoms: C_42  and  O_44 
REMARK   19  A    between atoms: C_45  and  C_46 
REMARK   20  A    between atoms: C_46  and  C_47 
REMARK   21  A    between atoms: C_47  and  O_49 
REMARK   22  A    between atoms: C_50  and  C_51 
REMARK   23  A    between atoms: C_51  and  C_52 
REMARK   24  A    between atoms: C_52  and  O_54 
REMARK   25  A    between atoms: C_55  and  C_56 
REMARK   26  A    between atoms: C_56  and  C_57 
REMARK   27  A    between atoms: C_57  and  C_58 
REMARK   28  A    between atoms: C_58  and  O_60 
ROOT
ATOM      1  O   UNK d   0      20.788  25.473  -5.610  0.00  0.00    -0.650 OA
ATOM      2  C   UNK d   0      19.744  26.161  -5.552  0.00  0.00     0.139 C 
ENDROOT
BRANCH   2   3
ATOM      3  O   UNK d   0      19.693  27.365  -6.212  0.00  0.00    -0.776 OA
ATOM      4  H   UNK d   0      19.780  28.248  -5.706  0.00  0.00     0.167 HD
ENDBRANCH   2   3
BRANCH   2   5
ATOM      5  C   UNK d   0      18.571  25.676  -4.771  0.00  0.00     0.115 C 
BRANCH   5   6
ATOM      6  C   UNK d   0      17.332  26.424  -5.181  0.00  0.00     0.052 C 
BRANCH   6   7
ATOM      7  C   UNK d   0      16.063  25.693  -4.812  0.00  0.00    -0.020 A 
ATOM      8  C   UNK d   0      15.358  25.821  -3.717  0.00  0.00    -0.011 A 
ATOM      9  C   UNK d   0      14.230  24.908  -3.805  0.00  0.00     0.067 A 
ATOM     10  C   UNK d   0      13.125  24.584  -3.002  0.00  0.00     0.062 C 
ATOM     11  N   UNK d   0      14.330  24.260  -4.984  0.00  0.00    -0.248 NA
ATOM     12  C   UNK d   0      11.982  23.872  -3.382  0.00  0.00     0.041 A 
ATOM     13  N   UNK d   0      11.837  22.760  -4.128  0.00  0.00    -0.355 N 
ATOM     14  C   UNK d   0      10.719  24.364  -3.006  0.00  0.00    -0.022 A 
ATOM     15  C   UNK d   0      10.514  22.539  -4.242  0.00  0.00     0.042 A 
ATOM     16  H   UNK d   0      12.654  22.134  -4.549  0.00  0.00     0.166 HD
ATOM     17  C   UNK d   0       9.814  21.515  -4.912  0.00  0.00     0.062 C 
ATOM     18  C   UNK d   0       9.780  23.523  -3.552  0.00  0.00    -0.013 A 
ATOM     19  C   UNK d   0      10.026  21.003  -6.166  0.00  0.00     0.067 A 
ATOM     20  N   UNK d   0      11.155  21.362  -6.782  0.00  0.00    -0.248 NA
ATOM     21  C   UNK d   0       9.302  20.129  -7.074  0.00  0.00    -0.011 A 
ATOM     22  C   UNK d   0      11.221  20.787  -8.028  0.00  0.00     0.066 A 
ATOM     23  C   UNK d   0      12.366  21.047  -8.767  0.00  0.00     0.062 C 
ATOM     24  C   UNK d   0      10.005  20.010  -8.163  0.00  0.00    -0.020 A 
ATOM     25  C   UNK d   0      13.509  21.754  -8.362  0.00  0.00     0.041 A 
ATOM     26  N   UNK d   0      13.653  22.867  -7.633  0.00  0.00    -0.355 N 
ATOM     27  C   UNK d   0      14.777  21.257  -8.735  0.00  0.00    -0.022 A 
ATOM     28  C   UNK d   0      14.971  23.095  -7.525  0.00  0.00     0.042 A 
ATOM     29  H   UNK d   0      12.831  23.501  -7.220  0.00  0.00     0.166 HD
ATOM     30  C   UNK d   0      15.681  24.114  -6.870  0.00  0.00     0.062 C 
ATOM     31  C   UNK d   0      15.708  22.099  -8.210  0.00  0.00    -0.013 A 
ATOM     32  C   UNK d   0      15.411  24.687  -5.638  0.00  0.00     0.066 A 
BRANCH   8  33
ATOM     33  C   UNK d   0      15.641  26.718  -2.582  0.00  0.00     0.151 C 
BRANCH  33  34
ATOM     34  C   UNK d   0      14.882  27.980  -2.649  0.00  0.00     0.143 C 
ATOM     35  O   UNK d   0      14.399  28.376  -3.719  0.00  0.00    -0.650 OA
BRANCH  34  36
ATOM     36  O   UNK d   0      14.711  28.727  -1.507  0.00  0.00    -0.776 OA
ATOM     37  H   UNK d   0      13.831  28.695  -0.974  0.00  0.00     0.167 HD
ENDBRANCH  34  36
ENDBRANCH  33  34
ENDBRANCH   8  33
BRANCH  31  38
ATOM     38  C   UNK d   0      17.207  21.962  -8.336  0.00  0.00     0.151 C 
BRANCH  38  39
ATOM     39  C   UNK d   0      17.749  22.719  -9.445  0.00  0.00     0.143 C 
ATOM     40  O   UNK d   0      18.231  22.171 -10.452  0.00  0.00    -0.650 OA
BRANCH  39  41
ATOM     41  O   UNK d   0      17.735  24.113  -9.396  0.00  0.00    -0.776 OA
ATOM     42  H   UNK d   0      17.453  24.540  -8.509  0.00  0.00     0.167 HD
ENDBRANCH  39  41
ENDBRANCH  38  39
ENDBRANCH  31  38
BRANCH  27  43
ATOM     43  C   UNK d   0      15.126  20.041  -9.556  0.00  0.00     0.052 C 
BRANCH  43  44
ATOM     44  C   UNK d   0      15.441  18.838  -8.727  0.00  0.00     0.115 C 
BRANCH  44  45
ATOM     45  C   UNK d   0      16.303  17.961  -9.561  0.00  0.00     0.139 C 
ATOM     46  O   UNK d   0      17.428  17.633  -9.107  0.00  0.00    -0.650 OA
BRANCH  45  47
ATOM     47  O   UNK d   0      15.918  17.494 -10.798  0.00  0.00    -0.776 OA
ATOM     48  H   UNK d   0      15.810  16.488 -11.009  0.00  0.00     0.167 HD
ENDBRANCH  45  47
ENDBRANCH  44  45
ENDBRANCH  43  44
ENDBRANCH  27  43
BRANCH  24  49
ATOM     49  C   UNK d   0       9.661  19.183  -9.333  0.00  0.00     0.052 C 
BRANCH  49  50
ATOM     50  C   UNK d   0      10.857  19.029 -10.237  0.00  0.00     0.115 C 
BRANCH  50  51
ATOM     51  C   UNK d   0      11.858  18.044  -9.852  0.00  0.00     0.139 C 
ATOM     52  O   UNK d   0      11.829  17.444  -8.752  0.00  0.00    -0.650 OA
BRANCH  51  53
ATOM     53  O   UNK d   0      12.896  17.744 -10.722  0.00  0.00    -0.776 OA
ATOM     54  H   UNK d   0      13.690  18.360 -10.745  0.00  0.00     0.167 HD
ENDBRANCH  51  53
ENDBRANCH  50  51
ENDBRANCH  49  50
ENDBRANCH  24  49
BRANCH  21  55
ATOM     55  C   UNK d   0       7.986  19.500  -6.756  0.00  0.00     0.151 C 
BRANCH  55  56
ATOM     56  C   UNK d   0       7.345  20.123  -5.588  0.00  0.00     0.143 C 
ATOM     57  O   UNK d   0       7.374  19.613  -4.450  0.00  0.00    -0.650 OA
BRANCH  56  58
ATOM     58  O   UNK d   0       6.683  21.334  -5.779  0.00  0.00    -0.776 OA
ATOM     59  H   UNK d   0       5.983  21.569  -5.052  0.00  0.00     0.167 HD
ENDBRANCH  56  58
ENDBRANCH  55  56
ENDBRANCH  21  55
BRANCH  18  60
ATOM     60  C   UNK d   0       8.287  23.684  -3.406  0.00  0.00     0.151 C 
BRANCH  60  61
ATOM     61  C   UNK d   0       7.845  24.438  -4.589  0.00  0.00     0.143 C 
ATOM     62  O   UNK d   0       7.263  25.524  -4.602  0.00  0.00    -0.650 OA
BRANCH  61  63
ATOM     63  O   UNK d   0       8.130  23.829  -5.834  0.00  0.00    -0.776 OA
ATOM     64  H   UNK d   0       7.433  23.772  -6.556  0.00  0.00     0.167 HD
ENDBRANCH  61  63
ENDBRANCH  60  61
ENDBRANCH  18  60
BRANCH  14  65
ATOM     65  C   UNK d   0      10.338  25.499  -2.099  0.00  0.00     0.052 C 
BRANCH  65  66
ATOM     66  C   UNK d   0       9.920  26.720  -2.838  0.00  0.00     0.115 C 
BRANCH  66  67
ATOM     67  C   UNK d   0       8.860  27.538  -2.321  0.00  0.00     0.139 C 
ATOM     68  O   UNK d   0       8.537  28.604  -2.964  0.00  0.00    -0.650 OA
BRANCH  67  69
ATOM     69  O   UNK d   0       8.103  27.325  -1.169  0.00  0.00    -0.776 OA
ATOM     70  H   UNK d   0       8.120  28.086  -0.475  0.00  0.00     0.167 HD
ENDBRANCH  67  69
ENDBRANCH  66  67
ENDBRANCH  65  66
ENDBRANCH  14  65
ENDBRANCH   6   7
ENDBRANCH   5   6
ENDBRANCH   2   5
TORSDOF 28
ENDMDL
MODEL 5
REMARK VINA RESULT:      -7.9     25.813     29.461
REMARK  28 active torsions:
REMARK  status: ('A' for Active; 'I' for Inactive)
REMARK    1  A    between atoms: C_2  and  O_3 
REMARK    2  A    between atoms: C_2  and  C_4 
REMARK    3  A    between atoms: C_4  and  C_5 
REMARK    4  A    between atoms: C_5  and  C_6 
REMARK    5  A    between atoms: C_7  and  C_8 
REMARK    6  A    between atoms: C_8  and  C_9 
REMARK    7  A    between atoms: C_9  and  O_11 
REMARK    8  A    between atoms: C_28  and  C_29 
REMARK    9  A    between atoms: C_29  and  C_30 
REMARK   10  A    between atoms: C_30  and  O_32 
REMARK   11  A    between atoms: C_33  and  C_34 
REMARK   12  A    between atoms: C_34  and  C_35 
REMARK   13  A    between atoms: C_35  and  C_36 
REMARK   14  A    between atoms: C_36  and  O_38 
REMARK   15  A    between atoms: C_39  and  C_40 
REMARK   16  A    between atoms: C_40  and  C_41 
REMARK   17  A    between atoms: C_41  and  C_42 
REMARK   18  A    between atoms: C_42  and  O_44 
REMARK   19  A    between atoms: C_45  and  C_46 
REMARK   20  A    between atoms: C_46  and  C_47 
REMARK   21  A    between atoms: C_47  and  O_49 
REMARK   22  A    between atoms: C_50  and  C_51 
REMARK   23  A    between atoms: C_51  and  C_52 
REMARK   24  A    between atoms: C_52  and  O_54 
REMARK   25  A    between atoms: C_55  and  C_56 
REMARK   26  A    between atoms: C_56  and  C_57 
REMARK   27  A    between atoms: C_57  and  C_58 
REMARK   28  A    between atoms: C_58  and  O_60 
ROOT
ATOM      1  O   UNK d   0      16.417  -1.662  -1.571  0.00  0.00    -0.650 OA
ATOM      2  C   UNK d   0      17.185  -2.494  -1.038  0.00  0.00     0.139 C 
ENDROOT
BRANCH   2   3
ATOM      3  O   UNK d   0      17.829  -3.417  -1.825  0.00  0.00    -0.776 OA
ATOM      4  H   UNK d   0      18.473  -4.099  -1.419  0.00  0.00     0.167 HD
ENDBRANCH   2   3
BRANCH   2   5
ATOM      5  C   UNK d   0      17.394  -2.480   0.438  0.00  0.00     0.115 C 
BRANCH   5   6
ATOM      6  C   UNK d   0      17.619  -3.880   0.941  0.00  0.00     0.052 C 
BRANCH   6   7
ATOM      7  C   UNK d   0      17.640  -3.959   2.449  0.00  0.00    -0.020 A 
ATOM      8  C   UNK d   0      17.467  -5.019   3.196  0.00  0.00    -0.011 A 
ATOM      9  C   UNK d   0      17.565  -4.606   4.586  0.00  0.00     0.067 A 
ATOM     10  C   UNK d   0      17.497  -5.238   5.837  0.00  0.00     0.062 C 
ATOM     11  N   UNK d   0      17.793  -3.276   4.593  0.00  0.00    -0.248 NA
ATOM     12  C   UNK d   0      17.895  -4.715   7.073  0.00  0.00     0.041 A 
ATOM     13  N   UNK d   0      17.720  -3.496   7.617  0.00  0.00    -0.355 N 
ATOM     14  C   UNK d   0      18.661  -5.519   7.937  0.00  0.00    -0.022 A 
ATOM     15  C   UNK d   0      18.362  -3.503   8.801  0.00  0.00     0.042 A 
ATOM     16  H   UNK d   0      17.138  -2.654   7.182  0.00  0.00     0.166 HD
ATOM     17  C   UNK d   0      18.497  -2.492   9.773  0.00  0.00     0.062 C 
ATOM     18  C   UNK d   0      18.965  -4.754   9.035  0.00  0.00    -0.013 A 
ATOM     19  C   UNK d   0      18.791  -1.163   9.600  0.00  0.00     0.067 A 
ATOM     20  N   UNK d   0      18.759  -0.694   8.350  0.00  0.00    -0.248 NA
ATOM     21  C   UNK d   0      19.167  -0.056  10.463  0.00  0.00    -0.011 A 
ATOM     22  C   UNK d   0      19.088   0.639   8.333  0.00  0.00     0.066 A 
ATOM     23  C   UNK d   0      19.057   1.266   7.096  0.00  0.00     0.062 C 
ATOM     24  C   UNK d   0      19.344   0.995   9.715  0.00  0.00    -0.020 A 
ATOM     25  C   UNK d   0      18.642   0.726   5.868  0.00  0.00     0.041 A 
ATOM     26  N   UNK d   0      18.829  -0.480   5.321  0.00  0.00    -0.355 N 
ATOM     27  C   UNK d   0      17.870   1.532   5.004  0.00  0.00    -0.022 A 
ATOM     28  C   UNK d   0      18.197  -0.473   4.136  0.00  0.00     0.042 A 
ATOM     29  H   UNK d   0      19.423  -1.322   5.754  0.00  0.00     0.166 HD
ATOM     30  C   UNK d   0      18.063  -1.469   3.156  0.00  0.00     0.062 C 
ATOM     31  C   UNK d   0      17.583   0.781   3.906  0.00  0.00    -0.013 A 
ATOM     32  C   UNK d   0      17.850  -2.826   3.339  0.00  0.00     0.066 A 
BRANCH   8  33
ATOM     33  C   UNK d   0      17.212  -6.396   2.732  0.00  0.00     0.151 C 
BRANCH  33  34
ATOM     34  C   UNK d   0      18.392  -7.269   2.860  0.00  0.00     0.143 C 
ATOM     35  O   UNK d   0      19.539  -6.804   2.790  0.00  0.00    -0.650 OA
BRANCH  34  36
ATOM     36  O   UNK d   0      18.215  -8.619   3.058  0.00  0.00    -0.776 OA
ATOM     37  H   UNK d   0      17.976  -8.996   3.986  0.00  0.00     0.167 HD
ENDBRANCH  34  36
ENDBRANCH  33  34
ENDBRANCH   8  33
BRANCH  31  38
ATOM     38  C   UNK d   0      16.764   1.220   2.714  0.00  0.00     0.151 C 
BRANCH  38  39
ATOM     39  C   UNK d   0      15.497   0.526   2.617  0.00  0.00     0.143 C 
ATOM     40  O   UNK d   0      14.866   0.149   3.620  0.00  0.00    -0.650 OA
BRANCH  39  41
ATOM     41  O   UNK d   0      14.953   0.264   1.360  0.00  0.00    -0.776 OA
ATOM     42  H   UNK d   0      14.616  -0.689   1.192  0.00  0.00     0.167 HD
ENDBRANCH  39  41
ENDBRANCH  38  39
ENDBRANCH  31  38
BRANCH  27  43
ATOM     43  C   UNK d   0      17.408   2.957   5.179  0.00  0.00     0.052 C 
BRANCH  43  44
ATOM     44  C   UNK d   0      15.933   3.079   5.388  0.00  0.00     0.115 C 
BRANCH  44  45
ATOM     45  C   UNK d   0      15.568   4.475   5.035  0.00  0.00     0.139 C 
ATOM     46  O   UNK d   0      15.300   5.271   5.968  0.00  0.00    -0.650 OA
BRANCH  45  47
ATOM     47  O   UNK d   0      15.518   4.928   3.734  0.00  0.00    -0.776 OA
ATOM     48  H   UNK d   0      15.890   4.386   2.937  0.00  0.00     0.167 HD
ENDBRANCH  45  47
ENDBRANCH  44  45
ENDBRANCH  43  44
ENDBRANCH  27  43
BRANCH  24  49
ATOM     49  C   UNK d   0      19.695   2.346  10.184  0.00  0.00     0.052 C 
BRANCH  49  50
ATOM     50  C   UNK d   0      21.166   2.605   9.981  0.00  0.00     0.115 C 
BRANCH  50  51
ATOM     51  C   UNK d   0      21.544   3.433   8.843  0.00  0.00     0.139 C 
ATOM     52  O   UNK d   0      22.145   2.975   7.843  0.00  0.00    -0.650 OA
BRANCH  51  53
ATOM     53  O   UNK d   0      21.239   4.786   8.848  0.00  0.00    -0.776 OA
ATOM     54  H   UNK d   0      20.719   5.154   9.625  0.00  0.00     0.167 HD
ENDBRANCH  51  53
ENDBRANCH  50  51
ENDBRANCH  49  50
ENDBRANCH  24  49
BRANCH  21  55
ATOM     55  C   UNK d   0      19.307  -0.162  11.945  0.00  0.00     0.151 C 
BRANCH  55  56
ATOM     56  C   UNK d   0      20.716  -0.188  12.366  0.00  0.00     0.143 C 
ATOM     57  O   UNK d   0      21.236   0.724  13.038  0.00  0.00    -0.650 OA
BRANCH  56  58
ATOM     58  O   UNK d   0      21.486  -1.287  11.989  0.00  0.00    -0.776 OA
ATOM     59  H   UNK d   0      21.091  -1.852  11.216  0.00  0.00     0.167 HD
ENDBRANCH  56  58
ENDBRANCH  55  56
ENDBRANCH  21  55
BRANCH  18  60
ATOM     60  C   UNK d   0      19.783  -5.221  10.214  0.00  0.00     0.151 C 
BRANCH  60  61
ATOM     61  C   UNK d   0      21.153  -4.746   9.967  0.00  0.00     0.143 C 
ATOM     62  O   UNK d   0      21.851  -4.975   8.978  0.00  0.00    -0.650 OA
BRANCH  61  63
ATOM     63  O   UNK d   0      21.706  -3.942  10.992  0.00  0.00    -0.776 OA
ATOM     64  H   UNK d   0      22.131  -3.056  10.783  0.00  0.00     0.167 HD
ENDBRANCH  61  63
ENDBRANCH  60  61
ENDBRANCH  18  60
BRANCH  14  65
ATOM     65  C   UNK d   0      19.040  -6.970   7.848  0.00  0.00     0.052 C 
BRANCH  65  66
ATOM     66  C   UNK d   0      18.134  -7.856   8.627  0.00  0.00     0.115 C 
BRANCH  66  67
ATOM     67  C   UNK d   0      16.738  -7.913   8.298  0.00  0.00     0.139 C 
ATOM     68  O   UNK d   0      15.881  -7.588   9.200  0.00  0.00    -0.650 OA
BRANCH  67  69
ATOM     69  O   UNK d   0      16.162  -8.289   7.085  0.00  0.00    -0.776 OA
ATOM     70  H   UNK d   0      16.373  -7.680   6.281  0.00  0.00     0.167 HD
ENDBRANCH  67  69
ENDBRANCH  66  67
ENDBRANCH  65  66
ENDBRANCH  14  65
ENDBRANCH   6   7
ENDBRANCH   5   6
ENDBRANCH   2   5
TORSDOF 28
ENDMDL
MODEL 6
REMARK VINA RESULT:      -7.8     26.610     32.188
REMARK  28 active torsions:
REMARK  status: ('A' for Active; 'I' for Inactive)
REMARK    1  A    between atoms: C_2  and  O_3 
REMARK    2  A    between atoms: C_2  and  C_4 
REMARK    3  A    between atoms: C_4  and  C_5 
REMARK    4  A    between atoms: C_5  and  C_6 
REMARK    5  A    between atoms: C_7  and  C_8 
REMARK    6  A    between atoms: C_8  and  C_9 
REMARK    7  A    between atoms: C_9  and  O_11 
REMARK    8  A    between atoms: C_28  and  C_29 
REMARK    9  A    between atoms: C_29  and  C_30 
REMARK   10  A    between atoms: C_30  and  O_32 
REMARK   11  A    between atoms: C_33  and  C_34 
REMARK   12  A    between atoms: C_34  and  C_35 
REMARK   13  A    between atoms: C_35  and  C_36 
REMARK   14  A    between atoms: C_36  and  O_38 
REMARK   15  A    between atoms: C_39  and  C_40 
REMARK   16  A    between atoms: C_40  and  C_41 
REMARK   17  A    between atoms: C_41  and  C_42 
REMARK   18  A    between atoms: C_42  and  O_44 
REMARK   19  A    between atoms: C_45  and  C_46 
REMARK   20  A    between atoms: C_46  and  C_47 
REMARK   21  A    between atoms: C_47  and  O_49 
REMARK   22  A    between atoms: C_50  and  C_51 
REMARK   23  A    between atoms: C_51  and  C_52 
REMARK   24  A    between atoms: C_52  and  O_54 
REMARK   25  A    between atoms: C_55  and  C_56 
REMARK   26  A    between atoms: C_56  and  C_57 
REMARK   27  A    between atoms: C_57  and  C_58 
REMARK   28  A    between atoms: C_58  and  O_60 
ROOT
ATOM      1  O   UNK d   0     -15.495  17.305   8.389  0.00  0.00    -0.650 OA
ATOM      2  C   UNK d   0     -15.536  16.085   8.110  0.00  0.00     0.139 C 
ENDROOT
BRANCH   2   3
ATOM      3  O   UNK d   0     -15.540  15.695   6.793  0.00  0.00    -0.776 OA
ATOM      4  H   UNK d   0     -16.347  15.216   6.387  0.00  0.00     0.167 HD
ENDBRANCH   2   3
BRANCH   2   5
ATOM      5  C   UNK d   0     -15.581  15.070   9.201  0.00  0.00     0.115 C 
BRANCH   5   6
ATOM      6  C   UNK d   0     -14.316  14.257   9.203  0.00  0.00     0.052 C 
BRANCH   6   7
ATOM      7  C   UNK d   0     -13.124  15.037   9.704  0.00  0.00    -0.020 A 
ATOM      8  C   UNK d   0     -12.122  15.502   9.002  0.00  0.00    -0.011 A 
ATOM      9  C   UNK d   0     -11.214  16.176   9.915  0.00  0.00     0.067 A 
ATOM     10  C   UNK d   0     -10.006  16.881   9.804  0.00  0.00     0.062 C 
ATOM     11  N   UNK d   0     -11.739  16.068  11.153  0.00  0.00    -0.248 NA
ATOM     12  C   UNK d   0      -9.415  17.706  10.767  0.00  0.00     0.041 A 
ATOM     13  N   UNK d   0      -9.266  17.551  12.096  0.00  0.00    -0.355 N 
ATOM     14  C   UNK d   0      -8.910  18.959  10.373  0.00  0.00    -0.022 A 
ATOM     15  C   UNK d   0      -8.687  18.676  12.557  0.00  0.00     0.042 A 
ATOM     16  H   UNK d   0      -9.547  16.656  12.694  0.00  0.00     0.166 HD
ATOM     17  C   UNK d   0      -8.309  19.039  13.865  0.00  0.00     0.062 C 
ATOM     18  C   UNK d   0      -8.449  19.582  11.506  0.00  0.00    -0.013 A 
ATOM     19  C   UNK d   0      -9.009  18.898  15.036  0.00  0.00     0.067 A 
ATOM     20  N   UNK d   0     -10.113  18.147  14.994  0.00  0.00    -0.248 NA
ATOM     21  C   UNK d   0      -8.877  19.388  16.398  0.00  0.00    -0.011 A 
ATOM     22  C   UNK d   0     -10.712  18.111  16.229  0.00  0.00     0.066 A 
ATOM     23  C   UNK d   0     -11.854  17.332  16.338  0.00  0.00     0.062 C 
ATOM     24  C   UNK d   0      -9.878  18.927  17.090  0.00  0.00    -0.020 A 
ATOM     25  C   UNK d   0     -12.424  16.500  15.361  0.00  0.00     0.041 A 
ATOM     26  N   UNK d   0     -12.585  16.661  14.043  0.00  0.00    -0.355 N 
ATOM     27  C   UNK d   0     -12.927  15.241  15.757  0.00  0.00    -0.022 A 
ATOM     28  C   UNK d   0     -13.171  15.544  13.582  0.00  0.00     0.042 A 
ATOM     29  H   UNK d   0     -12.312  17.565  13.445  0.00  0.00     0.166 HD
ATOM     30  C   UNK d   0     -13.561  15.174  12.286  0.00  0.00     0.062 C 
ATOM     31  C   UNK d   0     -13.400  14.629  14.637  0.00  0.00    -0.013 A 
ATOM     32  C   UNK d   0     -12.888  15.394  11.094  0.00  0.00     0.066 A 
BRANCH   8  33
ATOM     33  C   UNK d   0     -11.926  15.372   7.546  0.00  0.00     0.151 C 
BRANCH  33  34
ATOM     34  C   UNK d   0     -11.826  16.675   6.865  0.00  0.00     0.143 C 
ATOM     35  O   UNK d   0     -10.742  17.081   6.422  0.00  0.00    -0.650 OA
BRANCH  34  36
ATOM     36  O   UNK d   0     -12.954  17.451   6.722  0.00  0.00    -0.776 OA
ATOM     37  H   UNK d   0     -13.848  17.178   7.154  0.00  0.00     0.167 HD
ENDBRANCH  34  36
ENDBRANCH  33  34
ENDBRANCH   8  33
BRANCH  31  38
ATOM     38  C   UNK d   0     -14.022  13.254  14.568  0.00  0.00     0.151 C 
BRANCH  38  39
ATOM     39  C   UNK d   0     -13.069  12.224  14.213  0.00  0.00     0.143 C 
ATOM     40  O   UNK d   0     -11.855  12.460  14.074  0.00  0.00    -0.650 OA
BRANCH  39  41
ATOM     41  O   UNK d   0     -13.512  10.917  14.017  0.00  0.00    -0.776 OA
ATOM     42  H   UNK d   0     -13.847  10.414  14.845  0.00  0.00     0.167 HD
ENDBRANCH  39  41
ENDBRANCH  38  39
ENDBRANCH  31  38
BRANCH  27  43
ATOM     43  C   UNK d   0     -12.974  14.616  17.129  0.00  0.00     0.052 C 
BRANCH  43  44
ATOM     44  C   UNK d   0     -11.859  13.652  17.377  0.00  0.00     0.115 C 
BRANCH  44  45
ATOM     45  C   UNK d   0     -11.118  14.157  18.563  0.00  0.00     0.139 C 
ATOM     46  O   UNK d   0     -11.574  13.892  19.703  0.00  0.00    -0.650 OA
BRANCH  45  47
ATOM     47  O   UNK d   0      -9.958  14.893  18.461  0.00  0.00    -0.776 OA
ATOM     48  H   UNK d   0      -9.516  15.120  17.556  0.00  0.00     0.167 HD
ENDBRANCH  45  47
ENDBRANCH  44  45
ENDBRANCH  43  44
ENDBRANCH  27  43
BRANCH  24  49
ATOM     49  C   UNK d   0     -10.115  19.147  18.527  0.00  0.00     0.052 C 
BRANCH  49  50
ATOM     50  C   UNK d   0     -11.050  20.311  18.733  0.00  0.00     0.115 C 
BRANCH  50  51
ATOM     51  C   UNK d   0     -10.526  21.465  19.452  0.00  0.00     0.139 C 
ATOM     52  O   UNK d   0     -10.078  22.480  18.867  0.00  0.00    -0.650 OA
BRANCH  51  53
ATOM     53  O   UNK d   0     -10.510  21.461  20.838  0.00  0.00    -0.776 OA
ATOM     54  H   UNK d   0     -10.893  20.664  21.315  0.00  0.00     0.167 HD
ENDBRANCH  51  53
ENDBRANCH  50  51
ENDBRANCH  49  50
ENDBRANCH  24  49
BRANCH  21  55
ATOM     55  C   UNK d   0      -7.760  20.261  16.866  0.00  0.00     0.151 C 
BRANCH  55  56
ATOM     56  C   UNK d   0      -7.704  21.530  16.124  0.00  0.00     0.143 C 
ATOM     57  O   UNK d   0      -8.661  22.326  16.074  0.00  0.00    -0.650 OA
BRANCH  56  58
ATOM     58  O   UNK d   0      -6.521  21.837  15.453  0.00  0.00    -0.776 OA
ATOM     59  H   UNK d   0      -6.582  21.796  14.420  0.00  0.00     0.167 HD
ENDBRANCH  56  58
ENDBRANCH  55  56
ENDBRANCH  21  55
BRANCH  18  60
ATOM     60  C   UNK d   0      -7.829  20.957  11.544  0.00  0.00     0.151 C 
BRANCH  60  61
ATOM     61  C   UNK d   0      -6.423  20.756  11.925  0.00  0.00     0.143 C 
ATOM     62  O   UNK d   0      -5.804  21.338  12.816  0.00  0.00    -0.650 OA
BRANCH  61  63
ATOM     63  O   UNK d   0      -5.728  19.781  11.169  0.00  0.00    -0.776 OA
ATOM     64  H   UNK d   0      -6.059  18.834  11.115  0.00  0.00     0.167 HD
ENDBRANCH  61  63
ENDBRANCH  60  61
ENDBRANCH  18  60
BRANCH  14  65
ATOM     65  C   UNK d   0      -8.742  19.563   9.008  0.00  0.00     0.052 C 
BRANCH  65  66
ATOM     66  C   UNK d   0      -9.805  20.549   8.674  0.00  0.00     0.115 C 
BRANCH  66  67
ATOM     67  C   UNK d   0     -11.041  20.096   8.102  0.00  0.00     0.139 C 
ATOM     68  O   UNK d   0     -11.187  20.159   6.826  0.00  0.00    -0.650 OA
BRANCH  67  69
ATOM     69  O   UNK d   0     -12.150  19.575   8.769  0.00  0.00    -0.776 OA
ATOM     70  H   UNK d   0     -11.980  18.724   9.324  0.00  0.00     0.167 HD
ENDBRANCH  67  69
ENDBRANCH  66  67
ENDBRANCH  65  66
ENDBRANCH  14  65
ENDBRANCH   6   7
ENDBRANCH   5   6
ENDBRANCH   2   5
TORSDOF 28
ENDMDL
MODEL 7
REMARK VINA RESULT:      -7.7     24.534     27.984
REMARK  28 active torsions:
REMARK  status: ('A' for Active; 'I' for Inactive)
REMARK    1  A    between atoms: C_2  and  O_3 
REMARK    2  A    between atoms: C_2  and  C_4 
REMARK    3  A    between atoms: C_4  and  C_5 
REMARK    4  A    between atoms: C_5  and  C_6 
REMARK    5  A    between atoms: C_7  and  C_8 
REMARK    6  A    between atoms: C_8  and  C_9 
REMARK    7  A    between atoms: C_9  and  O_11 
REMARK    8  A    between atoms: C_28  and  C_29 
REMARK    9  A    between atoms: C_29  and  C_30 
REMARK   10  A    between atoms: C_30  and  O_32 
REMARK   11  A    between atoms: C_33  and  C_34 
REMARK   12  A    between atoms: C_34  and  C_35 
REMARK   13  A    between atoms: C_35  and  C_36 
REMARK   14  A    between atoms: C_36  and  O_38 
REMARK   15  A    between atoms: C_39  and  C_40 
REMARK   16  A    between atoms: C_40  and  C_41 
REMARK   17  A    between atoms: C_41  and  C_42 
REMARK   18  A    between atoms: C_42  and  O_44 
REMARK   19  A    between atoms: C_45  and  C_46 
REMARK   20  A    between atoms: C_46  and  C_47 
REMARK   21  A    between atoms: C_47  and  O_49 
REMARK   22  A    between atoms: C_50  and  C_51 
REMARK   23  A    between atoms: C_51  and  C_52 
REMARK   24  A    between atoms: C_52  and  O_54 
REMARK   25  A    between atoms: C_55  and  C_56 
REMARK   26  A    between atoms: C_56  and  C_57 
REMARK   27  A    between atoms: C_57  and  C_58 
REMARK   28  A    between atoms: C_58  and  O_60 
ROOT
ATOM      1  O   UNK d   0      12.924  -0.537  12.188  0.00  0.00    -0.650 OA
ATOM      2  C   UNK d   0      14.001  -0.766  11.595  0.00  0.00     0.139 C 
ENDROOT
BRANCH   2   3
ATOM      3  O   UNK d   0      15.177  -0.754  12.306  0.00  0.00    -0.776 OA
ATOM      4  H   UNK d   0      15.478  -1.571  12.841  0.00  0.00     0.167 HD
ENDBRANCH   2   3
BRANCH   2   5
ATOM      5  C   UNK d   0      14.004  -1.047  10.131  0.00  0.00     0.115 C 
BRANCH   5   6
ATOM      6  C   UNK d   0      15.203  -0.409   9.484  0.00  0.00     0.052 C 
BRANCH   6   7
ATOM      7  C   UNK d   0      15.786  -1.256   8.378  0.00  0.00    -0.020 A 
ATOM      8  C   UNK d   0      16.310  -2.450   8.479  0.00  0.00    -0.011 A 
ATOM      9  C   UNK d   0      16.744  -2.859   7.154  0.00  0.00     0.067 A 
ATOM     10  C   UNK d   0      17.344  -3.997   6.591  0.00  0.00     0.062 C 
ATOM     11  N   UNK d   0      16.451  -1.850   6.307  0.00  0.00    -0.248 NA
ATOM     12  C   UNK d   0      17.435  -4.322   5.233  0.00  0.00     0.041 A 
ATOM     13  N   UNK d   0      17.730  -3.567   4.159  0.00  0.00    -0.355 N 
ATOM     14  C   UNK d   0      17.129  -5.634   4.826  0.00  0.00    -0.022 A 
ATOM     15  C   UNK d   0      17.612  -4.363   3.079  0.00  0.00     0.042 A 
ATOM     16  H   UNK d   0      18.036  -2.497   4.165  0.00  0.00     0.166 HD
ATOM     17  C   UNK d   0      17.807  -4.083   1.712  0.00  0.00     0.062 C 
ATOM     18  C   UNK d   0      17.236  -5.666   3.458  0.00  0.00    -0.013 A 
ATOM     19  C   UNK d   0      17.382  -3.001   0.984  0.00  0.00     0.067 A 
ATOM     20  N   UNK d   0      16.885  -1.968   1.669  0.00  0.00    -0.248 NA
ATOM     21  C   UNK d   0      17.307  -2.655  -0.426  0.00  0.00    -0.011 A 
ATOM     22  C   UNK d   0      16.489  -0.973   0.810  0.00  0.00     0.066 A 
ATOM     23  C   UNK d   0      15.986   0.181   1.393  0.00  0.00     0.062 C 
ATOM     24  C   UNK d   0      16.779  -1.469  -0.521  0.00  0.00    -0.020 A 
ATOM     25  C   UNK d   0      15.915   0.493   2.760  0.00  0.00     0.041 A 
ATOM     26  N   UNK d   0      15.606  -0.254   3.826  0.00  0.00    -0.355 N 
ATOM     27  C   UNK d   0      16.226   1.808   3.168  0.00  0.00    -0.022 A 
ATOM     28  C   UNK d   0      15.715   0.540   4.903  0.00  0.00     0.042 A 
ATOM     29  H   UNK d   0      15.290  -1.326   3.818  0.00  0.00     0.166 HD
ATOM     30  C   UNK d   0      15.515   0.277   6.268  0.00  0.00     0.062 C 
ATOM     31  C   UNK d   0      16.104   1.847   4.523  0.00  0.00    -0.013 A 
ATOM     32  C   UNK d   0      15.872  -0.856   6.981  0.00  0.00     0.066 A 
BRANCH   8  33
ATOM     33  C   UNK d   0      16.451  -3.254   9.708  0.00  0.00     0.151 C 
BRANCH  33  34
ATOM     34  C   UNK d   0      17.858  -3.473  10.088  0.00  0.00     0.143 C 
ATOM     35  O   UNK d   0      18.311  -4.620  10.214  0.00  0.00    -0.650 OA
BRANCH  34  36
ATOM     36  O   UNK d   0      18.676  -2.389  10.305  0.00  0.00    -0.776 OA
ATOM     37  H   UNK d   0      19.548  -2.478  10.844  0.00  0.00     0.167 HD
ENDBRANCH  34  36
ENDBRANCH  33  34
ENDBRANCH   8  33
BRANCH  31  38
ATOM     38  C   UNK d   0      16.352   3.046   5.407  0.00  0.00     0.151 C 
BRANCH  38  39
ATOM     39  C   UNK d   0      17.760   3.297   5.631  0.00  0.00     0.143 C 
ATOM     40  O   UNK d   0      18.227   4.447   5.708  0.00  0.00    -0.650 OA
BRANCH  39  41
ATOM     41  O   UNK d   0      18.635   2.220   5.768  0.00  0.00    -0.776 OA
ATOM     42  H   UNK d   0      19.458   2.212   5.157  0.00  0.00     0.167 HD
ENDBRANCH  39  41
ENDBRANCH  38  39
ENDBRANCH  31  38
BRANCH  27  43
ATOM     43  C   UNK d   0      16.625   3.001   2.336  0.00  0.00     0.052 C 
BRANCH  43  44
ATOM     44  C   UNK d   0      18.099   3.099   2.111  0.00  0.00     0.115 C 
BRANCH  44  45
ATOM     45  C   UNK d   0      18.392   4.529   1.832  0.00  0.00     0.139 C 
ATOM     46  O   UNK d   0      17.561   5.182   1.153  0.00  0.00    -0.650 OA
BRANCH  45  47
ATOM     47  O   UNK d   0      19.527   5.163   2.290  0.00  0.00    -0.776 OA
ATOM     48  H   UNK d   0      20.115   5.763   1.689  0.00  0.00     0.167 HD
ENDBRANCH  45  47
ENDBRANCH  44  45
ENDBRANCH  43  44
ENDBRANCH  27  43
BRANCH  24  49
ATOM     49  C   UNK d   0      16.554  -0.716  -1.767  0.00  0.00     0.052 C 
BRANCH  49  50
ATOM     50  C   UNK d   0      17.493   0.461  -1.845  0.00  0.00     0.115 C 
BRANCH  50  51
ATOM     51  C   UNK d   0      18.919   0.180  -1.757  0.00  0.00     0.139 C 
ATOM     52  O   UNK d   0      19.659   0.705  -0.892  0.00  0.00    -0.650 OA
BRANCH  51  53
ATOM     53  O   UNK d   0      19.503  -0.697  -2.657  0.00  0.00    -0.776 OA
ATOM     54  H   UNK d   0      19.779  -1.605  -2.326  0.00  0.00     0.167 HD
ENDBRANCH  51  53
ENDBRANCH  50  51
ENDBRANCH  49  50
ENDBRANCH  24  49
BRANCH  21  55
ATOM     55  C   UNK d   0      17.774  -3.545  -1.530  0.00  0.00     0.151 C 
BRANCH  55  56
ATOM     56  C   UNK d   0      16.659  -4.023  -2.362  0.00  0.00     0.143 C 
ATOM     57  O   UNK d   0      16.026  -3.278  -3.136  0.00  0.00    -0.650 OA
BRANCH  56  58
ATOM     58  O   UNK d   0      16.309  -5.369  -2.267  0.00  0.00    -0.776 OA
ATOM     59  H   UNK d   0      15.842  -5.759  -3.106  0.00  0.00     0.167 HD
ENDBRANCH  56  58
ENDBRANCH  55  56
ENDBRANCH  21  55
BRANCH  18  60
ATOM     60  C   UNK d   0      16.984  -6.881   2.600  0.00  0.00     0.151 C 
BRANCH  60  61
ATOM     61  C   UNK d   0      18.194  -7.711   2.710  0.00  0.00     0.143 C 
ATOM     62  O   UNK d   0      18.247  -8.916   2.959  0.00  0.00    -0.650 OA
BRANCH  61  63
ATOM     63  O   UNK d   0      19.415  -7.026   2.503  0.00  0.00    -0.776 OA
ATOM     64  H   UNK d   0      20.288  -7.522   2.469  0.00  0.00     0.167 HD
ENDBRANCH  61  63
ENDBRANCH  60  61
ENDBRANCH  18  60
BRANCH  14  65
ATOM     65  C   UNK d   0      16.842  -6.869   5.631  0.00  0.00     0.052 C 
BRANCH  65  66
ATOM     66  C   UNK d   0      18.048  -7.414   6.310  0.00  0.00     0.115 C 
BRANCH  66  67
ATOM     67  C   UNK d   0      18.208  -7.240   7.726  0.00  0.00     0.139 C 
ATOM     68  O   UNK d   0      19.372  -7.425   8.240  0.00  0.00    -0.650 OA
BRANCH  67  69
ATOM     69  O   UNK d   0      17.232  -6.883   8.657  0.00  0.00    -0.776 OA
ATOM     70  H   UNK d   0      17.117  -7.526   9.453  0.00  0.00     0.167 HD
ENDBRANCH  67  69
ENDBRANCH  66  67
ENDBRANCH  65  66
ENDBRANCH  14  65
ENDBRANCH   6   7
ENDBRANCH   5   6
ENDBRANCH   2   5
TORSDOF 28
ENDMDL
MODEL 8
REMARK VINA RESULT:      -7.6     24.378     27.942
REMARK  28 active torsions:
REMARK  status: ('A' for Active; 'I' for Inactive)
REMARK    1  A    between atoms: C_2  and  O_3 
REMARK    2  A    between atoms: C_2  and  C_4 
REMARK    3  A    between atoms: C_4  and  C_5 
REMARK    4  A    between atoms: C_5  and  C_6 
REMARK    5  A    between atoms: C_7  and  C_8 
REMARK    6  A    between atoms: C_8  and  C_9 
REMARK    7  A    between atoms: C_9  and  O_11 
REMARK    8  A    between atoms: C_28  and  C_29 
REMARK    9  A    between atoms: C_29  and  C_30 
REMARK   10  A    between atoms: C_30  and  O_32 
REMARK   11  A    between atoms: C_33  and  C_34 
REMARK   12  A    between atoms: C_34  and  C_35 
REMARK   13  A    between atoms: C_35  and  C_36 
REMARK   14  A    between atoms: C_36  and  O_38 
REMARK   15  A    between atoms: C_39  and  C_40 
REMARK   16  A    between atoms: C_40  and  C_41 
REMARK   17  A    between atoms: C_41  and  C_42 
REMARK   18  A    between atoms: C_42  and  O_44 
REMARK   19  A    between atoms: C_45  and  C_46 
REMARK   20  A    between atoms: C_46  and  C_47 
REMARK   21  A    between atoms: C_47  and  O_49 
REMARK   22  A    between atoms: C_50  and  C_51 
REMARK   23  A    between atoms: C_51  and  C_52 
REMARK   24  A    between atoms: C_52  and  O_54 
REMARK   25  A    between atoms: C_55  and  C_56 
REMARK   26  A    between atoms: C_56  and  C_57 
REMARK   27  A    between atoms: C_57  and  C_58 
REMARK   28  A    between atoms: C_58  and  O_60 
ROOT
ATOM      1  O   UNK d   0      -9.693  21.916  18.599  0.00  0.00    -0.650 OA
ATOM      2  C   UNK d   0      -8.942  22.275  17.664  0.00  0.00     0.139 C 
ENDROOT
BRANCH   2   3
ATOM      3  O   UNK d   0      -7.679  22.732  17.953  0.00  0.00    -0.776 OA
ATOM      4  H   UNK d   0      -7.401  23.690  17.731  0.00  0.00     0.167 HD
ENDBRANCH   2   3
BRANCH   2   5
ATOM      5  C   UNK d   0      -9.418  22.206  16.253  0.00  0.00     0.115 C 
BRANCH   5   6
ATOM      6  C   UNK d   0      -8.295  22.544  15.311  0.00  0.00     0.052 C 
BRANCH   6   7
ATOM      7  C   UNK d   0      -8.707  23.532  14.247  0.00  0.00    -0.020 A 
ATOM      8  C   UNK d   0      -9.089  24.772  14.414  0.00  0.00    -0.011 A 
ATOM      9  C   UNK d   0      -9.393  25.325  13.104  0.00  0.00     0.067 A 
ATOM     10  C   UNK d   0      -9.819  26.565  12.602  0.00  0.00     0.062 C 
ATOM     11  N   UNK d   0      -9.174  24.350  12.198  0.00  0.00    -0.248 NA
ATOM     12  C   UNK d   0      -9.791  26.994  11.271  0.00  0.00     0.041 A 
ATOM     13  N   UNK d   0     -10.112  26.359  10.128  0.00  0.00    -0.355 N 
ATOM     14  C   UNK d   0      -9.307  28.283  10.981  0.00  0.00    -0.022 A 
ATOM     15  C   UNK d   0      -9.836  27.208   9.120  0.00  0.00     0.042 A 
ATOM     16  H   UNK d   0     -10.543  25.337  10.036  0.00  0.00     0.166 HD
ATOM     17  C   UNK d   0      -9.983  27.052   7.727  0.00  0.00     0.062 C 
ATOM     18  C   UNK d   0      -9.329  28.425   9.616  0.00  0.00    -0.013 A 
ATOM     19  C   UNK d   0      -9.649  25.980   6.940  0.00  0.00     0.067 A 
ATOM     20  N   UNK d   0      -9.320  24.848   7.567  0.00  0.00    -0.248 NA
ATOM     21  C   UNK d   0      -9.533  25.728   5.513  0.00  0.00    -0.011 A 
ATOM     22  C   UNK d   0      -8.997  23.874   6.654  0.00  0.00     0.066 A 
ATOM     23  C   UNK d   0      -8.670  22.629   7.171  0.00  0.00     0.062 C 
ATOM     24  C   UNK d   0      -9.147  24.495   5.353  0.00  0.00    -0.020 A 
ATOM     25  C   UNK d   0      -8.717  22.214   8.510  0.00  0.00     0.041 A 
ATOM     26  N   UNK d   0      -8.384  22.840   9.646  0.00  0.00    -0.355 N 
ATOM     27  C   UNK d   0      -9.207  20.922   8.800  0.00  0.00    -0.022 A 
ATOM     28  C   UNK d   0      -8.650  21.992  10.651  0.00  0.00     0.042 A 
ATOM     29  H   UNK d   0      -7.941  23.862   9.735  0.00  0.00     0.166 HD
ATOM     30  C   UNK d   0      -8.499  22.131  12.040  0.00  0.00     0.062 C 
ATOM     31  C   UNK d   0      -9.169  20.773  10.153  0.00  0.00    -0.013 A 
ATOM     32  C   UNK d   0      -8.759  23.246  12.821  0.00  0.00     0.066 A 
BRANCH   8  33
ATOM     33  C   UNK d   0      -9.204  25.498  15.692  0.00  0.00     0.151 C 
BRANCH  33  34
ATOM     34  C   UNK d   0      -7.898  25.744  16.329  0.00  0.00     0.143 C 
ATOM     35  O   UNK d   0      -7.764  25.667  17.558  0.00  0.00    -0.650 OA
BRANCH  34  36
ATOM     36  O   UNK d   0      -6.814  26.063  15.544  0.00  0.00    -0.776 OA
ATOM     37  H   UNK d   0      -5.856  25.821  15.833  0.00  0.00     0.167 HD
ENDBRANCH  34  36
ENDBRANCH  33  34
ENDBRANCH   8  33
BRANCH  31  38
ATOM     38  C   UNK d   0      -9.610  19.554  10.928  0.00  0.00     0.151 C 
BRANCH  38  39
ATOM     39  C   UNK d   0      -8.613  18.505  10.941  0.00  0.00     0.143 C 
ATOM     40  O   UNK d   0      -7.404  18.738  11.118  0.00  0.00    -0.650 OA
BRANCH  39  41
ATOM     41  O   UNK d   0      -9.007  17.181  10.750  0.00  0.00    -0.776 OA
ATOM     42  H   UNK d   0      -9.999  16.970  10.895  0.00  0.00     0.167 HD
ENDBRANCH  39  41
ENDBRANCH  38  39
ENDBRANCH  31  38
BRANCH  27  43
ATOM     43  C   UNK d   0      -9.696  19.849   7.860  0.00  0.00     0.052 C 
BRANCH  43  44
ATOM     44  C   UNK d   0     -11.156  19.952   7.555  0.00  0.00     0.115 C 
BRANCH  44  45
ATOM     45  C   UNK d   0     -11.589  18.606   7.097  0.00  0.00     0.139 C 
ATOM     46  O   UNK d   0     -12.676  18.153   7.535  0.00  0.00    -0.650 OA
BRANCH  45  47
ATOM     47  O   UNK d   0     -10.855  17.845   6.213  0.00  0.00    -0.776 OA
ATOM     48  H   UNK d   0      -9.949  18.155   5.825  0.00  0.00     0.167 HD
ENDBRANCH  45  47
ENDBRANCH  44  45
ENDBRANCH  43  44
ENDBRANCH  27  43
BRANCH  24  49
ATOM     49  C   UNK d   0      -8.942  23.810   4.065  0.00  0.00     0.052 C 
BRANCH  49  50
ATOM     50  C   UNK d   0     -10.258  23.330   3.510  0.00  0.00     0.115 C 
BRANCH  50  51
ATOM     51  C   UNK d   0     -10.209  22.414   2.378  0.00  0.00     0.139 C 
ATOM     52  O   UNK d   0     -10.572  21.217   2.461  0.00  0.00    -0.650 OA
BRANCH  51  53
ATOM     53  O   UNK d   0      -9.743  22.863   1.152  0.00  0.00    -0.776 OA
ATOM     54  H   UNK d   0      -8.954  23.485   1.142  0.00  0.00     0.167 HD
ENDBRANCH  51  53
ENDBRANCH  50  51
ENDBRANCH  49  50
ENDBRANCH  24  49
BRANCH  21  55
ATOM     55  C   UNK d   0      -9.825  26.744   4.459  0.00  0.00     0.151 C 
BRANCH  55  56
ATOM     56  C   UNK d   0     -11.260  26.813   4.142  0.00  0.00     0.143 C 
ATOM     57  O   UNK d   0     -12.111  26.097   4.705  0.00  0.00    -0.650 OA
BRANCH  56  58
ATOM     58  O   UNK d   0     -11.666  27.723   3.167  0.00  0.00    -0.776 OA
ATOM     59  H   UNK d   0     -12.046  28.614   3.534  0.00  0.00     0.167 HD
ENDBRANCH  56  58
ENDBRANCH  55  56
ENDBRANCH  21  55
BRANCH  18  60
ATOM     60  C   UNK d   0      -8.884  29.657   8.868  0.00  0.00     0.151 C 
BRANCH  60  61
ATOM     61  C   UNK d   0     -10.114  30.387   8.526  0.00  0.00     0.143 C 
ATOM     62  O   UNK d   0     -10.915  30.899   9.308  0.00  0.00    -0.650 OA
BRANCH  61  63
ATOM     63  O   UNK d   0     -10.382  30.500   7.140  0.00  0.00    -0.776 OA
ATOM     64  H   UNK d   0      -9.802  31.065   6.545  0.00  0.00     0.167 HD
ENDBRANCH  61  63
ENDBRANCH  60  61
ENDBRANCH  18  60
BRANCH  14  65
ATOM     65  C   UNK d   0      -8.922  29.413  11.893  0.00  0.00     0.052 C 
BRANCH  65  66
ATOM     66  C   UNK d   0      -7.482  29.393  12.268  0.00  0.00     0.115 C 
BRANCH  66  67
ATOM     67  C   UNK d   0      -7.050  28.609  13.390  0.00  0.00     0.139 C 
ATOM     68  O   UNK d   0      -6.340  27.560  13.168  0.00  0.00    -0.650 OA
BRANCH  67  69
ATOM     69  O   UNK d   0      -7.306  28.838  14.741  0.00  0.00    -0.776 OA
ATOM     70  H   UNK d   0      -7.318  28.002  15.343  0.00  0.00     0.167 HD
ENDBRANCH  67  69
ENDBRANCH  66  67
ENDBRANCH  65  66
ENDBRANCH  14  65
ENDBRANCH   6   7
ENDBRANCH   5   6
ENDBRANCH   2   5
TORSDOF 28
ENDMDL
MODEL 9
REMARK VINA RESULT:      -7.6     24.830     27.845
REMARK  28 active torsions:
REMARK  status: ('A' for Active; 'I' for Inactive)
REMARK    1  A    between atoms: C_2  and  O_3 
REMARK    2  A    between atoms: C_2  and  C_4 
REMARK    3  A    between atoms: C_4  and  C_5 
REMARK    4  A    between atoms: C_5  and  C_6 
REMARK    5  A    between atoms: C_7  and  C_8 
REMARK    6  A    between atoms: C_8  and  C_9 
REMARK    7  A    between atoms: C_9  and  O_11 
REMARK    8  A    between atoms: C_28  and  C_29 
REMARK    9  A    between atoms: C_29  and  C_30 
REMARK   10  A    between atoms: C_30  and  O_32 
REMARK   11  A    between atoms: C_33  and  C_34 
REMARK   12  A    between atoms: C_34  and  C_35 
REMARK   13  A    between atoms: C_35  and  C_36 
REMARK   14  A    between atoms: C_36  and  O_38 
REMARK   15  A    between atoms: C_39  and  C_40 
REMARK   16  A    between atoms: C_40  and  C_41 
REMARK   17  A    between atoms: C_41  and  C_42 
REMARK   18  A    between atoms: C_42  and  O_44 
REMARK   19  A    between atoms: C_45  and  C_46 
REMARK   20  A    between atoms: C_46  and  C_47 
REMARK   21  A    between atoms: C_47  and  O_49 
REMARK   22  A    between atoms: C_50  and  C_51 
REMARK   23  A    between atoms: C_51  and  C_52 
REMARK   24  A    between atoms: C_52  and  O_54 
REMARK   25  A    between atoms: C_55  and  C_56 
REMARK   26  A    between atoms: C_56  and  C_57 
REMARK   27  A    between atoms: C_57  and  C_58 
REMARK   28  A    between atoms: C_58  and  O_60 
ROOT
ATOM      1  O   UNK d   0      18.966  -5.461   9.747  0.00  0.00    -0.650 OA
ATOM      2  C   UNK d   0      17.925  -5.534  10.437  0.00  0.00     0.139 C 
ENDROOT
BRANCH   2   3
ATOM      3  O   UNK d   0      17.757  -6.595  11.293  0.00  0.00    -0.776 OA
ATOM      4  H   UNK d   0      16.865  -7.091  11.351  0.00  0.00     0.167 HD
ENDBRANCH   2   3
BRANCH   2   5
ATOM      5  C   UNK d   0      16.878  -4.478  10.326  0.00  0.00     0.115 C 
BRANCH   5   6
ATOM      6  C   UNK d   0      17.521  -3.121  10.227  0.00  0.00     0.052 C 
BRANCH   6   7
ATOM      7  C   UNK d   0      17.071  -2.353   9.008  0.00  0.00    -0.020 A 
ATOM      8  C   UNK d   0      16.532  -1.161   8.969  0.00  0.00    -0.011 A 
ATOM      9  C   UNK d   0      16.260  -0.842   7.577  0.00  0.00     0.067 A 
ATOM     10  C   UNK d   0      15.726   0.251   6.875  0.00  0.00     0.062 C 
ATOM     11  N   UNK d   0      16.659  -1.898   6.838  0.00  0.00    -0.248 NA
ATOM     12  C   UNK d   0      15.799   0.489   5.498  0.00  0.00     0.041 A 
ATOM     13  N   UNK d   0      15.640  -0.336   4.446  0.00  0.00    -0.355 N 
ATOM     14  C   UNK d   0      16.145   1.776   5.048  0.00  0.00    -0.022 A 
ATOM     15  C   UNK d   0      15.884   0.393   3.340  0.00  0.00     0.042 A 
ATOM     16  H   UNK d   0      15.342  -1.407   4.483  0.00  0.00     0.166 HD
ATOM     17  C   UNK d   0      15.857   0.025   1.980  0.00  0.00     0.062 C 
ATOM     18  C   UNK d   0      16.205   1.722   3.678  0.00  0.00    -0.013 A 
ATOM     19  C   UNK d   0      16.374  -1.094   1.379  0.00  0.00     0.067 A 
ATOM     20  N   UNK d   0      16.790  -2.075   2.183  0.00  0.00    -0.248 NA
ATOM     21  C   UNK d   0      16.621  -1.526   0.013  0.00  0.00    -0.011 A 
ATOM     22  C   UNK d   0      17.292  -3.117   1.443  0.00  0.00     0.066 A 
ATOM     23  C   UNK d   0      17.727  -4.225   2.155  0.00  0.00     0.062 C 
ATOM     24  C   UNK d   0      17.163  -2.709   0.058  0.00  0.00    -0.020 A 
ATOM     25  C   UNK d   0      17.634  -4.451   3.537  0.00  0.00     0.041 A 
ATOM     26  N   UNK d   0      17.807  -3.635   4.584  0.00  0.00    -0.355 N 
ATOM     27  C   UNK d   0      17.282  -5.742   3.988  0.00  0.00    -0.022 A 
ATOM     28  C   UNK d   0      17.572  -4.361   5.688  0.00  0.00     0.042 A 
ATOM     29  H   UNK d   0      18.116  -2.562   4.545  0.00  0.00     0.166 HD
ATOM     30  C   UNK d   0      17.604  -4.011   7.047  0.00  0.00     0.062 C 
ATOM     31  C   UNK d   0      17.240  -5.694   5.348  0.00  0.00    -0.013 A 
ATOM     32  C   UNK d   0      17.157  -2.840   7.639  0.00  0.00     0.066 A 
BRANCH   8  33
ATOM     33  C   UNK d   0      16.239  -0.285  10.118  0.00  0.00     0.151 C 
BRANCH  33  34
ATOM     34  C   UNK d   0      15.006  -0.668  10.828  0.00  0.00     0.143 C 
ATOM     35  O   UNK d   0      13.984  -0.986  10.203  0.00  0.00    -0.650 OA
BRANCH  34  36
ATOM     36  O   UNK d   0      14.991  -0.670  12.204  0.00  0.00    -0.776 OA
ATOM     37  H   UNK d   0      14.124  -0.493  12.729  0.00  0.00     0.167 HD
ENDBRANCH  34  36
ENDBRANCH  33  34
ENDBRANCH   8  33
BRANCH  31  38
ATOM     38  C   UNK d   0      16.893  -6.839   6.270  0.00  0.00     0.151 C 
BRANCH  38  39
ATOM     39  C   UNK d   0      18.041  -7.649   6.617  0.00  0.00     0.143 C 
ATOM     40  O   UNK d   0      18.156  -8.832   6.251  0.00  0.00    -0.650 OA
BRANCH  39  41
ATOM     41  O   UNK d   0      19.064  -7.096   7.387  0.00  0.00    -0.776 OA
ATOM     42  H   UNK d   0      19.947  -6.897   6.907  0.00  0.00     0.167 HD
ENDBRANCH  39  41
ENDBRANCH  38  39
ENDBRANCH  31  38
BRANCH  27  43
ATOM     43  C   UNK d   0      16.994  -6.990   3.191  0.00  0.00     0.052 C 
BRANCH  43  44
ATOM     44  C   UNK d   0      15.537  -7.310   3.101  0.00  0.00     0.115 C 
BRANCH  44  45
ATOM     45  C   UNK d   0      15.400  -8.757   3.410  0.00  0.00     0.139 C 
ATOM     46  O   UNK d   0      14.446  -9.386   2.887  0.00  0.00    -0.650 OA
BRANCH  45  47
ATOM     47  O   UNK d   0      16.274  -9.431   4.235  0.00  0.00    -0.776 OA
ATOM     48  H   UNK d   0      17.246  -9.648   3.963  0.00  0.00     0.167 HD
ENDBRANCH  45  47
ENDBRANCH  44  45
ENDBRANCH  43  44
ENDBRANCH  27  43
BRANCH  24  49
ATOM     49  C   UNK d   0      17.541  -3.536  -1.101  0.00  0.00     0.052 C 
BRANCH  49  50
ATOM     50  C   UNK d   0      18.352  -2.726  -2.080  0.00  0.00     0.115 C 
BRANCH  50  51
ATOM     51  C   UNK d   0      17.762  -2.483  -3.390  0.00  0.00     0.139 C 
ATOM     52  O   UNK d   0      18.367  -1.869  -4.300  0.00  0.00    -0.650 OA
BRANCH  51  53
ATOM     53  O   UNK d   0      16.481  -2.938  -3.661  0.00  0.00    -0.776 OA
ATOM     54  H   UNK d   0      16.292  -3.919  -3.553  0.00  0.00     0.167 HD
ENDBRANCH  51  53
ENDBRANCH  50  51
ENDBRANCH  49  50
ENDBRANCH  24  49
BRANCH  21  55
ATOM     55  C   UNK d   0      16.287  -0.714  -1.193  0.00  0.00     0.151 C 
BRANCH  55  56
ATOM     56  C   UNK d   0      17.032   0.554  -1.229  0.00  0.00     0.143 C 
ATOM     57  O   UNK d   0      18.255   0.624  -0.998  0.00  0.00    -0.650 OA
BRANCH  56  58
ATOM     58  O   UNK d   0      16.324   1.715  -1.536  0.00  0.00    -0.776 OA
ATOM     59  H   UNK d   0      15.412   1.559  -2.002  0.00  0.00     0.167 HD
ENDBRANCH  56  58
ENDBRANCH  55  56
ENDBRANCH  21  55
BRANCH  18  60
ATOM     60  C   UNK d   0      16.552   2.884   2.781  0.00  0.00     0.151 C 
BRANCH  60  61
ATOM     61  C   UNK d   0      18.021   2.930   2.729  0.00  0.00     0.143 C 
ATOM     62  O   UNK d   0      18.772   2.095   2.225  0.00  0.00    -0.650 OA
BRANCH  61  63
ATOM     63  O   UNK d   0      18.610   4.068   3.332  0.00  0.00    -0.776 OA
ATOM     64  H   UNK d   0      18.740   4.118   4.327  0.00  0.00     0.167 HD
ENDBRANCH  61  63
ENDBRANCH  60  61
ENDBRANCH  18  60
BRANCH  14  65
ATOM     65  C   UNK d   0      16.325   3.064   5.802  0.00  0.00     0.052 C 
BRANCH  65  66
ATOM     66  C   UNK d   0      15.266   4.065   5.503  0.00  0.00     0.115 C 
BRANCH  66  67
ATOM     67  C   UNK d   0      15.588   5.465   5.512  0.00  0.00     0.139 C 
ATOM     68  O   UNK d   0      16.669   5.849   4.931  0.00  0.00    -0.650 OA
BRANCH  67  69
ATOM     69  O   UNK d   0      14.859   6.504   6.088  0.00  0.00    -0.776 OA
ATOM     70  H   UNK d   0      15.361   7.396   6.199  0.00  0.00     0.167 HD
ENDBRANCH  67  69
ENDBRANCH  66  67
ENDBRANCH  65  66
ENDBRANCH  14  65
ENDBRANCH   6   7
ENDBRANCH   5   6
ENDBRANCH   2   5
TORSDOF 28
ENDMDL
MODEL 10
REMARK VINA RESULT:      -7.6     26.606     32.223
REMARK  28 active torsions:
REMARK  status: ('A' for Active; 'I' for Inactive)
REMARK    1  A    between atoms: C_2  and  O_3 
REMARK    2  A    between atoms: C_2  and  C_4 
REMARK    3  A    between atoms: C_4  and  C_5 
REMARK    4  A    between atoms: C_5  and  C_6 
REMARK    5  A    between atoms: C_7  and  C_8 
REMARK    6  A    between atoms: C_8  and  C_9 
REMARK    7  A    between atoms: C_9  and  O_11 
REMARK    8  A    between atoms: C_28  and  C_29 
REMARK    9  A    between atoms: C_29  and  C_30 
REMARK   10  A    between atoms: C_30  and  O_32 
REMARK   11  A    between atoms: C_33  and  C_34 
REMARK   12  A    between atoms: C_34  and  C_35 
REMARK   13  A    between atoms: C_35  and  C_36 
REMARK   14  A    between atoms: C_36  and  O_38 
REMARK   15  A    between atoms: C_39  and  C_40 
REMARK   16  A    between atoms: C_40  and  C_41 
REMARK   17  A    between atoms: C_41  and  C_42 
REMARK   18  A    between atoms: C_42  and  O_44 
REMARK   19  A    between atoms: C_45  and  C_46 
REMARK   20  A    between atoms: C_46  and  C_47 
REMARK   21  A    between atoms: C_47  and  O_49 
REMARK   22  A    between atoms: C_50  and  C_51 
REMARK   23  A    between atoms: C_51  and  C_52 
REMARK   24  A    between atoms: C_52  and  O_54 
REMARK   25  A    between atoms: C_55  and  C_56 
REMARK   26  A    between atoms: C_56  and  C_57 
REMARK   27  A    between atoms: C_57  and  C_58 
REMARK   28  A    between atoms: C_58  and  O_60 
ROOT
ATOM      1  O   UNK d   0      -9.625  19.807   7.509  0.00  0.00    -0.650 OA
ATOM      2  C   UNK d   0     -10.237  18.723   7.637  0.00  0.00     0.139 C 
ENDROOT
BRANCH   2   3
ATOM      3  O   UNK d   0     -10.707  18.078   6.519  0.00  0.00    -0.776 OA
ATOM      4  H   UNK d   0     -11.693  17.827   6.430  0.00  0.00     0.167 HD
ENDBRANCH   2   3
BRANCH   2   5
ATOM      5  C   UNK d   0     -10.452  18.141   8.993  0.00  0.00     0.115 C 
BRANCH   5   6
ATOM      6  C   UNK d   0      -9.135  17.738   9.598  0.00  0.00     0.052 C 
BRANCH   6   7
ATOM      7  C   UNK d   0      -8.928  18.318  10.977  0.00  0.00    -0.020 A 
ATOM      8  C   UNK d   0      -8.159  19.321  11.315  0.00  0.00    -0.011 A 
ATOM      9  C   UNK d   0      -8.277  19.509  12.751  0.00  0.00     0.067 A 
ATOM     10  C   UNK d   0      -7.750  20.396  13.703  0.00  0.00     0.062 C 
ATOM     11  N   UNK d   0      -9.136  18.573  13.208  0.00  0.00    -0.248 NA
ATOM     12  C   UNK d   0      -8.199  20.599  15.012  0.00  0.00     0.041 A 
ATOM     13  N   UNK d   0      -8.590  19.726  15.960  0.00  0.00    -0.355 N 
ATOM     14  C   UNK d   0      -8.349  21.915  15.484  0.00  0.00    -0.022 A 
ATOM     15  C   UNK d   0      -8.992  20.456  17.018  0.00  0.00     0.042 A 
ATOM     16  H   UNK d   0      -8.565  18.616  15.890  0.00  0.00     0.166 HD
ATOM     17  C   UNK d   0      -9.492  20.049  18.271  0.00  0.00     0.062 C 
ATOM     18  C   UNK d   0      -8.856  21.833  16.757  0.00  0.00    -0.013 A 
ATOM     19  C   UNK d   0     -10.428  19.088  18.556  0.00  0.00     0.067 A 
ATOM     20  N   UNK d   0     -10.789  18.280  17.555  0.00  0.00    -0.248 NA
ATOM     21  C   UNK d   0     -11.197  18.691  19.724  0.00  0.00    -0.011 A 
ATOM     22  C   UNK d   0     -11.738  17.385  17.983  0.00  0.00     0.066 A 
ATOM     23  C   UNK d   0     -12.177  16.457  17.050  0.00  0.00     0.062 C 
ATOM     24  C   UNK d   0     -11.965  17.697  19.381  0.00  0.00    -0.020 A 
ATOM     25  C   UNK d   0     -11.703  16.262  15.743  0.00  0.00     0.041 A 
ATOM     26  N   UNK d   0     -11.329  17.129  14.796  0.00  0.00    -0.355 N 
ATOM     27  C   UNK d   0     -11.549  14.940  15.272  0.00  0.00    -0.022 A 
ATOM     28  C   UNK d   0     -10.936  16.404  13.736  0.00  0.00     0.042 A 
ATOM     29  H   UNK d   0     -11.365  18.244  14.864  0.00  0.00     0.166 HD
ATOM     30  C   UNK d   0     -10.446  16.796  12.481  0.00  0.00     0.062 C 
ATOM     31  C   UNK d   0     -11.063  15.021  14.004  0.00  0.00    -0.013 A 
ATOM     32  C   UNK d   0      -9.563  17.825  12.191  0.00  0.00     0.066 A 
BRANCH   8  33
ATOM     33  C   UNK d   0      -7.310  20.126  10.417  0.00  0.00     0.151 C 
BRANCH  33  34
ATOM     34  C   UNK d   0      -7.873  21.461  10.145  0.00  0.00     0.143 C 
ATOM     35  O   UNK d   0      -7.160  22.473  10.190  0.00  0.00    -0.650 OA
BRANCH  34  36
ATOM     36  O   UNK d   0      -9.209  21.582   9.840  0.00  0.00    -0.776 OA
ATOM     37  H   UNK d   0      -9.816  20.754   9.763  0.00  0.00     0.167 HD
ENDBRANCH  34  36
ENDBRANCH  33  34
ENDBRANCH   8  33
BRANCH  31  38
ATOM     38  C   UNK d   0     -10.727  13.856  13.102  0.00  0.00     0.151 C 
BRANCH  38  39
ATOM     39  C   UNK d   0      -9.308  13.740  12.840  0.00  0.00     0.143 C 
ATOM     40  O   UNK d   0      -8.831  13.848  11.696  0.00  0.00    -0.650 OA
BRANCH  39  41
ATOM     41  O   UNK d   0      -8.432  13.501  13.898  0.00  0.00    -0.776 OA
ATOM     42  H   UNK d   0      -8.404  12.545  14.267  0.00  0.00     0.167 HD
ENDBRANCH  39  41
ENDBRANCH  38  39
ENDBRANCH  31  38
BRANCH  27  43
ATOM     43  C   UNK d   0     -11.842  13.634  15.968  0.00  0.00     0.052 C 
BRANCH  43  44
ATOM     44  C   UNK d   0     -13.241  13.154  15.759  0.00  0.00     0.115 C 
BRANCH  44  45
ATOM     45  C   UNK d   0     -13.165  11.678  15.604  0.00  0.00     0.139 C 
ATOM     46  O   UNK d   0     -13.661  10.961  16.509  0.00  0.00    -0.650 OA
BRANCH  45  47
ATOM     47  O   UNK d   0     -12.581  11.070  14.514  0.00  0.00    -0.776 OA
ATOM     48  H   UNK d   0     -11.690  10.551  14.572  0.00  0.00     0.167 HD
ENDBRANCH  45  47
ENDBRANCH  44  45
ENDBRANCH  43  44
ENDBRANCH  27  43
BRANCH  24  49
ATOM     49  C   UNK d   0     -12.882  16.963  20.269  0.00  0.00     0.052 C 
BRANCH  49  50
ATOM     50  C   UNK d   0     -12.533  15.496  20.287  0.00  0.00     0.115 C 
BRANCH  50  51
ATOM     51  C   UNK d   0     -11.161  15.144  20.624  0.00  0.00     0.139 C 
ATOM     52  O   UNK d   0     -10.669  15.348  21.759  0.00  0.00    -0.650 OA
BRANCH  51  53
ATOM     53  O   UNK d   0     -10.347  14.561  19.665  0.00  0.00    -0.776 OA
ATOM     54  H   UNK d   0      -9.375  14.816  19.648  0.00  0.00     0.167 HD
ENDBRANCH  51  53
ENDBRANCH  50  51
ENDBRANCH  49  50
ENDBRANCH  24  49
BRANCH  21  55
ATOM     55  C   UNK d   0     -11.080  19.344  21.061  0.00  0.00     0.151 C 
BRANCH  55  56
ATOM     56  C   UNK d   0     -11.559  20.734  21.039  0.00  0.00     0.143 C 
ATOM     57  O   UNK d   0     -12.684  21.054  20.606  0.00  0.00    -0.650 OA
BRANCH  56  58
ATOM     58  O   UNK d   0     -10.706  21.722  21.528  0.00  0.00    -0.776 OA
ATOM     59  H   UNK d   0     -10.923  22.050  22.487  0.00  0.00     0.167 HD
ENDBRANCH  56  58
ENDBRANCH  55  56
ENDBRANCH  21  55
BRANCH  18  60
ATOM     60  C   UNK d   0      -9.180  23.014  17.637  0.00  0.00     0.151 C 
BRANCH  60  61
ATOM     61  C   UNK d   0     -10.644  23.149  17.609  0.00  0.00     0.143 C 
ATOM     62  O   UNK d   0     -11.364  23.221  16.613  0.00  0.00    -0.650 OA
BRANCH  61  63
ATOM     63  O   UNK d   0     -11.269  23.198  18.879  0.00  0.00    -0.776 OA
ATOM     64  H   UNK d   0     -12.072  23.780  19.039  0.00  0.00     0.167 HD
ENDBRANCH  61  63
ENDBRANCH  60  61
ENDBRANCH  18  60
BRANCH  14  65
ATOM     65  C   UNK d   0      -7.962  23.229  14.866  0.00  0.00     0.052 C 
BRANCH  65  66
ATOM     66  C   UNK d   0      -9.094  23.903  14.176  0.00  0.00     0.115 C 
BRANCH  66  67
ATOM     67  C   UNK d   0      -9.206  23.821  12.747  0.00  0.00     0.139 C 
ATOM     68  O   UNK d   0     -10.082  23.025  12.245  0.00  0.00    -0.650 OA
BRANCH  67  69
ATOM     69  O   UNK d   0      -8.465  24.516  11.791  0.00  0.00    -0.776 OA
ATOM     70  H   UNK d   0      -8.903  24.604  10.862  0.00  0.00     0.167 HD
ENDBRANCH  67  69
ENDBRANCH  66  67
ENDBRANCH  65  66
ENDBRANCH  14  65
ENDBRANCH   6   7
ENDBRANCH   5   6
ENDBRANCH   2   5
TORSDOF 28
ENDMDL
MODEL 11
REMARK VINA RESULT:      -7.5     23.365     28.732
REMARK  28 active torsions:
REMARK  status: ('A' for Active; 'I' for Inactive)
REMARK    1  A    between atoms: C_2  and  O_3 
REMARK    2  A    between atoms: C_2  and  C_4 
REMARK    3  A    between atoms: C_4  and  C_5 
REMARK    4  A    between atoms: C_5  and  C_6 
REMARK    5  A    between atoms: C_7  and  C_8 
REMARK    6  A    between atoms: C_8  and  C_9 
REMARK    7  A    between atoms: C_9  and  O_11 
REMARK    8  A    between atoms: C_28  and  C_29 
REMARK    9  A    between atoms: C_29  and  C_30 
REMARK   10  A    between atoms: C_30  and  O_32 
REMARK   11  A    between atoms: C_33  and  C_34 
REMARK   12  A    between atoms: C_34  and  C_35 
REMARK   13  A    between atoms: C_35  and  C_36 
REMARK   14  A    between atoms: C_36  and  O_38 
REMARK   15  A    between atoms: C_39  and  C_40 
REMARK   16  A    between atoms: C_40  and  C_41 
REMARK   17  A    between atoms: C_41  and  C_42 
REMARK   18  A    between atoms: C_42  and  O_44 
REMARK   19  A    between atoms: C_45  and  C_46 
REMARK   20  A    between atoms: C_46  and  C_47 
REMARK   21  A    between atoms: C_47  and  O_49 
REMARK   22  A    between atoms: C_50  and  C_51 
REMARK   23  A    between atoms: C_51  and  C_52 
REMARK   24  A    between atoms: C_52  and  O_54 
REMARK   25  A    between atoms: C_55  and  C_56 
REMARK   26  A    between atoms: C_56  and  C_57 
REMARK   27  A    between atoms: C_57  and  C_58 
REMARK   28  A    between atoms: C_58  and  O_60 
ROOT
ATOM      1  O   UNK d   0     -10.579  17.095  17.537  0.00  0.00    -0.650 OA
ATOM      2  C   UNK d   0      -9.809  16.750  16.613  0.00  0.00     0.139 C 
ENDROOT
BRANCH   2   3
ATOM      3  O   UNK d   0      -8.907  15.737  16.831  0.00  0.00    -0.776 OA
ATOM      4  H   UNK d   0      -8.929  15.188  17.693  0.00  0.00     0.167 HD
ENDBRANCH   2   3
BRANCH   2   5
ATOM      5  C   UNK d   0      -9.871  17.436  15.291  0.00  0.00     0.115 C 
BRANCH   5   6
ATOM      6  C   UNK d   0      -8.732  18.410  15.159  0.00  0.00     0.052 C 
BRANCH   6   7
ATOM      7  C   UNK d   0      -9.173  19.752  14.625  0.00  0.00    -0.020 A 
ATOM      8  C   UNK d   0      -9.573  20.791  15.311  0.00  0.00    -0.011 A 
ATOM      9  C   UNK d   0      -9.903  21.847  14.368  0.00  0.00     0.067 A 
ATOM     10  C   UNK d   0     -10.354  23.174  14.451  0.00  0.00     0.062 C 
ATOM     11  N   UNK d   0      -9.679  21.361  13.129  0.00  0.00    -0.248 NA
ATOM     12  C   UNK d   0     -10.350  24.135  13.434  0.00  0.00     0.041 A 
ATOM     13  N   UNK d   0     -10.675  24.047  12.130  0.00  0.00    -0.355 N 
ATOM     14  C   UNK d   0      -9.890  25.432  13.725  0.00  0.00    -0.022 A 
ATOM     15  C   UNK d   0     -10.426  25.252  11.585  0.00  0.00     0.042 A 
ATOM     16  H   UNK d   0     -11.091  23.156  11.610  0.00  0.00     0.166 HD
ATOM     17  C   UNK d   0     -10.589  25.707  10.261  0.00  0.00     0.062 C 
ATOM     18  C   UNK d   0      -9.932  26.147  12.554  0.00  0.00    -0.013 A 
ATOM     19  C   UNK d   0     -10.247  25.086   9.087  0.00  0.00     0.067 A 
ATOM     20  N   UNK d   0      -9.893  23.800   9.164  0.00  0.00    -0.248 NA
ATOM     21  C   UNK d   0     -10.146  25.474   7.690  0.00  0.00    -0.011 A 
ATOM     22  C   UNK d   0      -9.565  23.321   7.920  0.00  0.00     0.066 A 
ATOM     23  C   UNK d   0      -9.213  21.981   7.849  0.00  0.00     0.062 C 
ATOM     24  C   UNK d   0      -9.743  24.438   7.013  0.00  0.00    -0.020 A 
ATOM     25  C   UNK d   0      -9.235  21.029   8.880  0.00  0.00     0.041 A 
ATOM     26  N   UNK d   0      -8.898  21.113  10.172  0.00  0.00    -0.355 N 
ATOM     27  C   UNK d   0      -9.702  19.729   8.588  0.00  0.00    -0.022 A 
ATOM     28  C   UNK d   0      -9.138  19.909  10.716  0.00  0.00     0.042 A 
ATOM     29  H   UNK d   0      -8.470  22.005  10.691  0.00  0.00     0.166 HD
ATOM     30  C   UNK d   0      -8.972  19.440  12.029  0.00  0.00     0.062 C 
ATOM     31  C   UNK d   0      -9.644  19.014   9.744  0.00  0.00    -0.013 A 
ATOM     32  C   UNK d   0      -9.239  20.106  13.215  0.00  0.00     0.066 A 
BRANCH   8  33
ATOM     33  C   UNK d   0      -9.683  20.894  16.778  0.00  0.00     0.151 C 
BRANCH  33  34
ATOM     34  C   UNK d   0      -8.641  21.752  17.370  0.00  0.00     0.143 C 
ATOM     35  O   UNK d   0      -8.896  22.497  18.327  0.00  0.00    -0.650 OA
BRANCH  34  36
ATOM     36  O   UNK d   0      -7.367  21.724  16.850  0.00  0.00    -0.776 OA
ATOM     37  H   UNK d   0      -6.560  21.455  17.428  0.00  0.00     0.167 HD
ENDBRANCH  34  36
ENDBRANCH  33  34
ENDBRANCH   8  33
BRANCH  31  38
ATOM     38  C   UNK d   0     -10.056  17.571   9.922  0.00  0.00     0.151 C 
BRANCH  38  39
ATOM     39  C   UNK d   0      -9.319  16.667   9.065  0.00  0.00     0.143 C 
ATOM     40  O   UNK d   0      -9.760  15.551   8.739  0.00  0.00    -0.650 OA
BRANCH  39  41
ATOM     41  O   UNK d   0      -8.068  17.048   8.579  0.00  0.00    -0.776 OA
ATOM     42  H   UNK d   0      -7.764  18.004   8.789  0.00  0.00     0.167 HD
ENDBRANCH  39  41
ENDBRANCH  38  39
ENDBRANCH  31  38
BRANCH  27  43
ATOM     43  C   UNK d   0     -10.186  19.156   7.280  0.00  0.00     0.052 C 
BRANCH  43  44
ATOM     44  C   UNK d   0     -11.675  19.091   7.178  0.00  0.00     0.115 C 
BRANCH  44  45
ATOM     45  C   UNK d   0     -12.009  17.725   6.699  0.00  0.00     0.139 C 
ATOM     46  O   UNK d   0     -13.214  17.369   6.718  0.00  0.00    -0.650 OA
BRANCH  45  47
ATOM     47  O   UNK d   0     -11.058  16.843   6.233  0.00  0.00    -0.776 OA
ATOM     48  H   UNK d   0     -11.279  15.870   5.966  0.00  0.00     0.167 HD
ENDBRANCH  45  47
ENDBRANCH  44  45
ENDBRANCH  43  44
ENDBRANCH  27  43
BRANCH  24  49
ATOM     49  C   UNK d   0      -9.543  24.378   5.555  0.00  0.00     0.052 C 
BRANCH  49  50
ATOM     50  C   UNK d   0      -8.073  24.308   5.230  0.00  0.00     0.115 C 
BRANCH  50  51
ATOM     51  C   UNK d   0      -7.623  23.184   4.421  0.00  0.00     0.139 C 
ATOM     52  O   UNK d   0      -6.415  22.866   4.315  0.00  0.00    -0.650 OA
BRANCH  51  53
ATOM     53  O   UNK d   0      -8.552  22.421   3.729  0.00  0.00    -0.776 OA
ATOM     54  H   UNK d   0      -8.266  21.522   3.384  0.00  0.00     0.167 HD
ENDBRANCH  51  53
ENDBRANCH  50  51
ENDBRANCH  49  50
ENDBRANCH  24  49
BRANCH  21  55
ATOM     55  C   UNK d   0     -10.467  26.839   7.178  0.00  0.00     0.151 C 
BRANCH  55  56
ATOM     56  C   UNK d   0      -9.403  27.807   7.481  0.00  0.00     0.143 C 
ATOM     57  O   UNK d   0      -9.636  28.988   7.806  0.00  0.00    -0.650 OA
BRANCH  56  58
ATOM     58  O   UNK d   0      -8.082  27.367   7.398  0.00  0.00    -0.776 OA
ATOM     59  H   UNK d   0      -7.487  27.617   8.208  0.00  0.00     0.167 HD
ENDBRANCH  56  58
ENDBRANCH  55  56
ENDBRANCH  21  55
BRANCH  18  60
ATOM     60  C   UNK d   0      -9.516  27.590  12.407  0.00  0.00     0.151 C 
BRANCH  60  61
ATOM     61  C   UNK d   0      -8.207  27.566  11.738  0.00  0.00     0.143 C 
ATOM     62  O   UNK d   0      -7.166  27.060  12.160  0.00  0.00    -0.650 OA
BRANCH  61  63
ATOM     63  O   UNK d   0      -8.165  28.201  10.473  0.00  0.00    -0.776 OA
ATOM     64  H   UNK d   0      -8.652  29.064  10.310  0.00  0.00     0.167 HD
ENDBRANCH  61  63
ENDBRANCH  60  61
ENDBRANCH  18  60
BRANCH  14  65
ATOM     65  C   UNK d   0      -9.511  26.068  15.032  0.00  0.00     0.052 C 
BRANCH  65  66
ATOM     66  C   UNK d   0      -8.040  26.126  15.246  0.00  0.00     0.115 C 
BRANCH  66  67
ATOM     67  C   UNK d   0      -7.341  24.958  15.702  0.00  0.00     0.139 C 
ATOM     68  O   UNK d   0      -7.136  24.819  16.964  0.00  0.00    -0.650 OA
BRANCH  67  69
ATOM     69  O   UNK d   0      -6.832  23.913  14.932  0.00  0.00    -0.776 OA
ATOM     70  H   UNK d   0      -7.500  23.167  14.692  0.00  0.00     0.167 HD
ENDBRANCH  67  69
ENDBRANCH  66  67
ENDBRANCH  65  66
ENDBRANCH  14  65
ENDBRANCH   6   7
ENDBRANCH   5   6
ENDBRANCH   2   5
TORSDOF 28
ENDMDL
MODEL 12
REMARK VINA RESULT:      -7.5     25.462     28.167
REMARK  28 active torsions:
REMARK  status: ('A' for Active; 'I' for Inactive)
REMARK    1  A    between atoms: C_2  and  O_3 
REMARK    2  A    between atoms: C_2  and  C_4 
REMARK    3  A    between atoms: C_4  and  C_5 
REMARK    4  A    between atoms: C_5  and  C_6 
REMARK    5  A    between atoms: C_7  and  C_8 
REMARK    6  A    between atoms: C_8  and  C_9 
REMARK    7  A    between atoms: C_9  and  O_11 
REMARK    8  A    between atoms: C_28  and  C_29 
REMARK    9  A    between atoms: C_29  and  C_30 
REMARK   10  A    between atoms: C_30  and  O_32 
REMARK   11  A    between atoms: C_33  and  C_34 
REMARK   12  A    between atoms: C_34  and  C_35 
REMARK   13  A    between atoms: C_35  and  C_36 
REMARK   14  A    between atoms: C_36  and  O_38 
REMARK   15  A    between atoms: C_39  and  C_40 
REMARK   16  A    between atoms: C_40  and  C_41 
REMARK   17  A    between atoms: C_41  and  C_42 
REMARK   18  A    between atoms: C_42  and  O_44 
REMARK   19  A    between atoms: C_45  and  C_46 
REMARK   20  A    between atoms: C_46  and  C_47 
REMARK   21  A    between atoms: C_47  and  O_49 
REMARK   22  A    between atoms: C_50  and  C_51 
REMARK   23  A    between atoms: C_51  and  C_52 
REMARK   24  A    between atoms: C_52  and  O_54 
REMARK   25  A    between atoms: C_55  and  C_56 
REMARK   26  A    between atoms: C_56  and  C_57 
REMARK   27  A    between atoms: C_57  and  C_58 
REMARK   28  A    between atoms: C_58  and  O_60 
ROOT
ATOM      1  O   UNK d   0      -8.627   3.131  -6.060  0.00  0.00    -0.650 OA
ATOM      2  C   UNK d   0      -8.134   3.670  -5.044  0.00  0.00     0.139 C 
ENDROOT
BRANCH   2   3
ATOM      3  O   UNK d   0      -7.236   4.699  -5.196  0.00  0.00    -0.776 OA
ATOM      4  H   UNK d   0      -6.571   4.932  -4.455  0.00  0.00     0.167 HD
ENDBRANCH   2   3
BRANCH   2   5
ATOM      5  C   UNK d   0      -8.520   3.196  -3.684  0.00  0.00     0.115 C 
BRANCH   5   6
ATOM      6  C   UNK d   0      -8.357   1.704  -3.590  0.00  0.00     0.052 C 
BRANCH   6   7
ATOM      7  C   UNK d   0      -6.933   1.292  -3.303  0.00  0.00    -0.020 A 
ATOM      8  C   UNK d   0      -6.329   1.262  -2.143  0.00  0.00    -0.011 A 
ATOM      9  C   UNK d   0      -4.966   0.808  -2.362  0.00  0.00     0.067 A 
ATOM     10  C   UNK d   0      -3.844   0.547  -1.560  0.00  0.00     0.062 C 
ATOM     11  N   UNK d   0      -4.825   0.590  -3.687  0.00  0.00    -0.248 NA
ATOM     12  C   UNK d   0      -2.690  -0.156  -1.921  0.00  0.00     0.041 A 
ATOM     13  N   UNK d   0      -1.948  -0.126  -3.044  0.00  0.00    -0.355 N 
ATOM     14  C   UNK d   0      -2.177  -1.122  -1.036  0.00  0.00    -0.022 A 
ATOM     15  C   UNK d   0      -0.983  -1.053  -2.899  0.00  0.00     0.042 A 
ATOM     16  H   UNK d   0      -2.092   0.551  -3.915  0.00  0.00     0.166 HD
ATOM     17  C   UNK d   0       0.058  -1.432  -3.769  0.00  0.00     0.062 C 
ATOM     18  C   UNK d   0      -1.094  -1.699  -1.652  0.00  0.00    -0.013 A 
ATOM     19  C   UNK d   0       0.010  -1.669  -5.119  0.00  0.00     0.067 A 
ATOM     20  N   UNK d   0      -1.108  -1.312  -5.756  0.00  0.00    -0.248 NA
ATOM     21  C   UNK d   0       0.899  -2.253  -6.110  0.00  0.00    -0.011 A 
ATOM     22  C   UNK d   0      -1.016  -1.622  -7.091  0.00  0.00     0.066 A 
ATOM     23  C   UNK d   0      -2.099  -1.269  -7.882  0.00  0.00     0.062 C 
ATOM     24  C   UNK d   0       0.291  -2.227  -7.261  0.00  0.00    -0.020 A 
ATOM     25  C   UNK d   0      -3.244  -0.552  -7.503  0.00  0.00     0.041 A 
ATOM     26  N   UNK d   0      -3.990  -0.593  -6.392  0.00  0.00    -0.355 N 
ATOM     27  C   UNK d   0      -3.755   0.421  -8.390  0.00  0.00    -0.022 A 
ATOM     28  C   UNK d   0      -4.959   0.325  -6.539  0.00  0.00     0.042 A 
ATOM     29  H   UNK d   0      -3.850  -1.281  -5.523  0.00  0.00     0.166 HD
ATOM     30  C   UNK d   0      -6.006   0.707  -5.685  0.00  0.00     0.062 C 
ATOM     31  C   UNK d   0      -4.840   0.981  -7.787  0.00  0.00    -0.013 A 
ATOM     32  C   UNK d   0      -5.973   0.861  -4.309  0.00  0.00     0.066 A 
BRANCH   8  33
ATOM     33  C   UNK d   0      -6.906   1.626  -0.835  0.00  0.00     0.151 C 
BRANCH  33  34
ATOM     34  C   UNK d   0      -6.602   3.014  -0.444  0.00  0.00     0.143 C 
ATOM     35  O   UNK d   0      -5.832   3.712  -1.119  0.00  0.00    -0.650 OA
BRANCH  34  36
ATOM     36  O   UNK d   0      -7.181   3.538   0.689  0.00  0.00    -0.776 OA
ATOM     37  H   UNK d   0      -7.286   4.555   0.813  0.00  0.00     0.167 HD
ENDBRANCH  34  36
ENDBRANCH  33  34
ENDBRANCH   8  33
BRANCH  31  38
ATOM     38  C   UNK d   0      -5.705   2.082  -8.355  0.00  0.00     0.151 C 
BRANCH  38  39
ATOM     39  C   UNK d   0      -5.251   3.404  -7.978  0.00  0.00     0.143 C 
ATOM     40  O   UNK d   0      -6.009   4.390  -7.968  0.00  0.00    -0.650 OA
BRANCH  39  41
ATOM     41  O   UNK d   0      -3.919   3.593  -7.611  0.00  0.00    -0.776 OA
ATOM     42  H   UNK d   0      -3.213   3.439  -8.338  0.00  0.00     0.167 HD
ENDBRANCH  39  41
ENDBRANCH  38  39
ENDBRANCH  31  38
BRANCH  27  43
ATOM     43  C   UNK d   0      -3.263   0.825  -9.757  0.00  0.00     0.052 C 
BRANCH  43  44
ATOM     44  C   UNK d   0      -3.655  -0.134 -10.833  0.00  0.00     0.115 C 
BRANCH  44  45
ATOM     45  C   UNK d   0      -4.628   0.577 -11.702  0.00  0.00     0.139 C 
ATOM     46  O   UNK d   0      -4.182   1.392 -12.547  0.00  0.00    -0.650 OA
BRANCH  45  47
ATOM     47  O   UNK d   0      -5.989   0.375 -11.620  0.00  0.00    -0.776 OA
ATOM     48  H   UNK d   0      -6.419  -0.274 -10.942  0.00  0.00     0.167 HD
ENDBRANCH  45  47
ENDBRANCH  44  45
ENDBRANCH  43  44
ENDBRANCH  27  43
BRANCH  24  49
ATOM     49  C   UNK d   0       0.845  -2.685  -8.546  0.00  0.00     0.052 C 
BRANCH  49  50
ATOM     50  C   UNK d   0       1.843  -1.685  -9.074  0.00  0.00     0.115 C 
BRANCH  50  51
ATOM     51  C   UNK d   0       1.374  -0.321  -9.276  0.00  0.00     0.139 C 
ATOM     52  O   UNK d   0       0.438  -0.037 -10.060  0.00  0.00    -0.650 OA
BRANCH  51  53
ATOM     53  O   UNK d   0       1.974   0.720  -8.585  0.00  0.00    -0.776 OA
ATOM     54  H   UNK d   0       2.407   1.456  -9.116  0.00  0.00     0.167 HD
ENDBRANCH  51  53
ENDBRANCH  50  51
ENDBRANCH  49  50
ENDBRANCH  24  49
BRANCH  21  55
ATOM     55  C   UNK d   0       2.265  -2.773  -5.804  0.00  0.00     0.151 C 
BRANCH  55  56
ATOM     56  C   UNK d   0       3.174  -1.705  -5.360  0.00  0.00     0.143 C 
ATOM     57  O   UNK d   0       3.838  -1.778  -4.307  0.00  0.00    -0.650 OA
BRANCH  56  58
ATOM     58  O   UNK d   0       3.286  -0.572  -6.164  0.00  0.00    -0.776 OA
ATOM     59  H   UNK d   0       3.182  -0.746  -7.180  0.00  0.00     0.167 HD
ENDBRANCH  56  58
ENDBRANCH  55  56
ENDBRANCH  21  55
BRANCH  18  60
ATOM     60  C   UNK d   0      -0.245  -2.796  -1.059  0.00  0.00     0.151 C 
BRANCH  60  61
ATOM     61  C   UNK d   0      -0.536  -4.003  -1.848  0.00  0.00     0.143 C 
ATOM     62  O   UNK d   0      -1.645  -4.432  -2.166  0.00  0.00    -0.650 OA
BRANCH  61  63
ATOM     63  O   UNK d   0       0.600  -4.731  -2.277  0.00  0.00    -0.776 OA
ATOM     64  H   UNK d   0       0.516  -5.676  -2.607  0.00  0.00     0.167 HD
ENDBRANCH  61  63
ENDBRANCH  60  61
ENDBRANCH  18  60
BRANCH  14  65
ATOM     65  C   UNK d   0      -2.569  -1.469   0.372  0.00  0.00     0.052 C 
BRANCH  65  66
ATOM     66  C   UNK d   0      -4.016  -1.784   0.512  0.00  0.00     0.115 C 
BRANCH  66  67
ATOM     67  C   UNK d   0      -4.519  -3.043   0.039  0.00  0.00     0.139 C 
ATOM     68  O   UNK d   0      -5.349  -3.689   0.779  0.00  0.00    -0.650 OA
BRANCH  67  69
ATOM     69  O   UNK d   0      -4.216  -3.687  -1.160  0.00  0.00    -0.776 OA
ATOM     70  H   UNK d   0      -5.008  -3.828  -1.805  0.00  0.00     0.167 HD
ENDBRANCH  67  69
ENDBRANCH  66  67
ENDBRANCH  65  66
ENDBRANCH  14  65
ENDBRANCH   6   7
ENDBRANCH   5   6
ENDBRANCH   2   5
TORSDOF 28
ENDMDL
MODEL 13
REMARK VINA RESULT:      -7.5     25.896     28.689
REMARK  28 active torsions:
REMARK  status: ('A' for Active; 'I' for Inactive)
REMARK    1  A    between atoms: C_2  and  O_3 
REMARK    2  A    between atoms: C_2  and  C_4 
REMARK    3  A    between atoms: C_4  and  C_5 
REMARK    4  A    between atoms: C_5  and  C_6 
REMARK    5  A    between atoms: C_7  and  C_8 
REMARK    6  A    between atoms: C_8  and  C_9 
REMARK    7  A    between atoms: C_9  and  O_11 
REMARK    8  A    between atoms: C_28  and  C_29 
REMARK    9  A    between atoms: C_29  and  C_30 
REMARK   10  A    between atoms: C_30  and  O_32 
REMARK   11  A    between atoms: C_33  and  C_34 
REMARK   12  A    between atoms: C_34  and  C_35 
REMARK   13  A    between atoms: C_35  and  C_36 
REMARK   14  A    between atoms: C_36  and  O_38 
REMARK   15  A    between atoms: C_39  and  C_40 
REMARK   16  A    between atoms: C_40  and  C_41 
REMARK   17  A    between atoms: C_41  and  C_42 
REMARK   18  A    between atoms: C_42  and  O_44 
REMARK   19  A    between atoms: C_45  and  C_46 
REMARK   20  A    between atoms: C_46  and  C_47 
REMARK   21  A    between atoms: C_47  and  O_49 
REMARK   22  A    between atoms: C_50  and  C_51 
REMARK   23  A    between atoms: C_51  and  C_52 
REMARK   24  A    between atoms: C_52  and  O_54 
REMARK   25  A    between atoms: C_55  and  C_56 
REMARK   26  A    between atoms: C_56  and  C_57 
REMARK   27  A    between atoms: C_57  and  C_58 
REMARK   28  A    between atoms: C_58  and  O_60 
ROOT
ATOM      1  O   UNK d   0      17.020   6.328   5.873  0.00  0.00    -0.650 OA
ATOM      2  C   UNK d   0      15.970   5.655   5.776  0.00  0.00     0.139 C 
ENDROOT
BRANCH   2   3
ATOM      3  O   UNK d   0      14.755   6.272   5.956  0.00  0.00    -0.776 OA
ATOM      4  H   UNK d   0      13.879   5.766   5.807  0.00  0.00     0.167 HD
ENDBRANCH   2   3
BRANCH   2   5
ATOM      5  C   UNK d   0      16.040   4.198   5.470  0.00  0.00     0.115 C 
BRANCH   5   6
ATOM      6  C   UNK d   0      17.314   3.885   4.733  0.00  0.00     0.052 C 
BRANCH   6   7
ATOM      7  C   UNK d   0      18.207   2.934   5.493  0.00  0.00    -0.020 A 
ATOM      8  C   UNK d   0      19.309   3.218   6.139  0.00  0.00    -0.011 A 
ATOM      9  C   UNK d   0      19.824   1.982   6.704  0.00  0.00     0.067 A 
ATOM     10  C   UNK d   0      20.921   1.612   7.498  0.00  0.00     0.062 C 
ATOM     11  N   UNK d   0      18.977   0.994   6.347  0.00  0.00    -0.248 NA
ATOM     12  C   UNK d   0      21.104   0.404   8.181  0.00  0.00     0.041 A 
ATOM     13  N   UNK d   0      20.873  -0.869   7.807  0.00  0.00    -0.355 N 
ATOM     14  C   UNK d   0      21.552   0.437   9.514  0.00  0.00    -0.022 A 
ATOM     15  C   UNK d   0      21.156  -1.644   8.871  0.00  0.00     0.042 A 
ATOM     16  H   UNK d   0      20.536  -1.214   6.805  0.00  0.00     0.166 HD
ATOM     17  C   UNK d   0      21.090  -3.043   9.026  0.00  0.00     0.062 C 
ATOM     18  C   UNK d   0      21.584  -0.860   9.960  0.00  0.00    -0.013 A 
ATOM     19  C   UNK d   0      20.099  -3.907   8.637  0.00  0.00     0.067 A 
ATOM     20  N   UNK d   0      19.152  -3.419   7.832  0.00  0.00    -0.248 NA
ATOM     21  C   UNK d   0      19.769  -5.300   8.890  0.00  0.00    -0.011 A 
ATOM     22  C   UNK d   0      18.226  -4.391   7.541  0.00  0.00     0.066 A 
ATOM     23  C   UNK d   0      17.201  -4.028   6.679  0.00  0.00     0.062 C 
ATOM     24  C   UNK d   0      18.669  -5.575   8.250  0.00  0.00    -0.020 A 
ATOM     25  C   UNK d   0      17.043  -2.814   5.994  0.00  0.00     0.041 A 
ATOM     26  N   UNK d   0      17.258  -1.547   6.370  0.00  0.00    -0.355 N 
ATOM     27  C   UNK d   0      16.598  -2.848   4.654  0.00  0.00    -0.022 A 
ATOM     28  C   UNK d   0      16.968  -0.772   5.313  0.00  0.00     0.042 A 
ATOM     29  H   UNK d   0      17.586  -1.201   7.381  0.00  0.00     0.166 HD
ATOM     30  C   UNK d   0      17.020   0.621   5.149  0.00  0.00     0.062 C 
ATOM     31  C   UNK d   0      16.548  -1.560   4.216  0.00  0.00    -0.013 A 
ATOM     32  C   UNK d   0      17.982   1.502   5.618  0.00  0.00     0.066 A 
BRANCH   8  33
ATOM     33  C   UNK d   0      19.937   4.545   6.278  0.00  0.00     0.151 C 
BRANCH  33  34
ATOM     34  C   UNK d   0      20.842   4.868   5.160  0.00  0.00     0.143 C 
ATOM     35  O   UNK d   0      21.930   4.288   5.034  0.00  0.00    -0.650 OA
BRANCH  34  36
ATOM     36  O   UNK d   0      20.472   5.827   4.246  0.00  0.00    -0.776 OA
ATOM     37  H   UNK d   0      21.075   6.066   3.448  0.00  0.00     0.167 HD
ENDBRANCH  34  36
ENDBRANCH  33  34
ENDBRANCH   8  33
BRANCH  31  38
ATOM     38  C   UNK d   0      16.139  -1.104   2.835  0.00  0.00     0.151 C 
BRANCH  38  39
ATOM     39  C   UNK d   0      14.781  -0.606   2.787  0.00  0.00     0.143 C 
ATOM     40  O   UNK d   0      14.001  -0.706   3.750  0.00  0.00    -0.650 OA
BRANCH  39  41
ATOM     41  O   UNK d   0      14.317   0.011   1.625  0.00  0.00    -0.776 OA
ATOM     42  H   UNK d   0      14.981   0.091   0.848  0.00  0.00     0.167 HD
ENDBRANCH  39  41
ENDBRANCH  38  39
ENDBRANCH  31  38
BRANCH  27  43
ATOM     43  C   UNK d   0      16.225  -4.032   3.798  0.00  0.00     0.052 C 
BRANCH  43  44
ATOM     44  C   UNK d   0      17.360  -4.546   2.973  0.00  0.00     0.115 C 
BRANCH  44  45
ATOM     45  C   UNK d   0      17.479  -5.997   3.272  0.00  0.00     0.139 C 
ATOM     46  O   UNK d   0      16.641  -6.511   4.052  0.00  0.00    -0.650 OA
BRANCH  45  47
ATOM     47  O   UNK d   0      18.461  -6.794   2.725  0.00  0.00    -0.776 OA
ATOM     48  H   UNK d   0      19.468  -6.637   2.894  0.00  0.00     0.167 HD
ENDBRANCH  45  47
ENDBRANCH  44  45
ENDBRANCH  43  44
ENDBRANCH  27  43
BRANCH  24  49
ATOM     49  C   UNK d   0      17.999  -6.886   8.199  0.00  0.00     0.052 C 
BRANCH  49  50
ATOM     50  C   UNK d   0      17.398  -7.219   9.541  0.00  0.00     0.115 C 
BRANCH  50  51
ATOM     51  C   UNK d   0      16.427  -6.280  10.087  0.00  0.00     0.139 C 
ATOM     52  O   UNK d   0      15.428  -5.888   9.439  0.00  0.00    -0.650 OA
BRANCH  51  53
ATOM     53  O   UNK d   0      16.597  -5.786  11.371  0.00  0.00    -0.776 OA
ATOM     54  H   UNK d   0      16.740  -6.443  12.118  0.00  0.00     0.167 HD
ENDBRANCH  51  53
ENDBRANCH  50  51
ENDBRANCH  49  50
ENDBRANCH  24  49
BRANCH  21  55
ATOM     55  C   UNK d   0      20.589  -6.211   9.742  0.00  0.00     0.151 C 
BRANCH  55  56
ATOM     56  C   UNK d   0      21.799  -6.676   9.047  0.00  0.00     0.143 C 
ATOM     57  O   UNK d   0      21.801  -7.009   7.845  0.00  0.00    -0.650 OA
BRANCH  56  58
ATOM     58  O   UNK d   0      22.984  -6.739   9.778  0.00  0.00    -0.776 OA
ATOM     59  H   UNK d   0      23.179  -7.659  10.214  0.00  0.00     0.167 HD
ENDBRANCH  56  58
ENDBRANCH  55  56
ENDBRANCH  21  55
BRANCH  18  60
ATOM     60  C   UNK d   0      22.000  -1.287  11.346  0.00  0.00     0.151 C 
BRANCH  60  61
ATOM     61  C   UNK d   0      23.421  -1.655  11.246  0.00  0.00     0.143 C 
ATOM     62  O   UNK d   0      24.144  -1.559  10.254  0.00  0.00    -0.650 OA
BRANCH  61  63
ATOM     63  O   UNK d   0      23.995  -2.171  12.433  0.00  0.00    -0.776 OA
ATOM     64  H   UNK d   0      24.805  -1.744  12.845  0.00  0.00     0.167 HD
ENDBRANCH  61  63
ENDBRANCH  60  61
ENDBRANCH  18  60
BRANCH  14  65
ATOM     65  C   UNK d   0      22.040   1.581  10.356  0.00  0.00     0.052 C 
BRANCH  65  66
ATOM     66  C   UNK d   0      21.130   1.898  11.490  0.00  0.00     0.115 C 
BRANCH  66  67
ATOM     67  C   UNK d   0      19.857   2.509  11.231  0.00  0.00     0.139 C 
ATOM     68  O   UNK d   0      18.833   1.749  11.066  0.00  0.00    -0.650 OA
BRANCH  67  69
ATOM     69  O   UNK d   0      19.569   3.870  11.131  0.00  0.00    -0.776 OA
ATOM     70  H   UNK d   0      20.244   4.432  10.593  0.00  0.00     0.167 HD
ENDBRANCH  67  69
ENDBRANCH  66  67
ENDBRANCH  65  66
ENDBRANCH  14  65
ENDBRANCH   6   7
ENDBRANCH   5   6
ENDBRANCH   2   5
TORSDOF 28
ENDMDL
MODEL 14
REMARK VINA RESULT:      -7.5     12.311     15.249
REMARK  28 active torsions:
REMARK  status: ('A' for Active; 'I' for Inactive)
REMARK    1  A    between atoms: C_2  and  O_3 
REMARK    2  A    between atoms: C_2  and  C_4 
REMARK    3  A    between atoms: C_4  and  C_5 
REMARK    4  A    between atoms: C_5  and  C_6 
REMARK    5  A    between atoms: C_7  and  C_8 
REMARK    6  A    between atoms: C_8  and  C_9 
REMARK    7  A    between atoms: C_9  and  O_11 
REMARK    8  A    between atoms: C_28  and  C_29 
REMARK    9  A    between atoms: C_29  and  C_30 
REMARK   10  A    between atoms: C_30  and  O_32 
REMARK   11  A    between atoms: C_33  and  C_34 
REMARK   12  A    between atoms: C_34  and  C_35 
REMARK   13  A    between atoms: C_35  and  C_36 
REMARK   14  A    between atoms: C_36  and  O_38 
REMARK   15  A    between atoms: C_39  and  C_40 
REMARK   16  A    between atoms: C_40  and  C_41 
REMARK   17  A    between atoms: C_41  and  C_42 
REMARK   18  A    between atoms: C_42  and  O_44 
REMARK   19  A    between atoms: C_45  and  C_46 
REMARK   20  A    between atoms: C_46  and  C_47 
REMARK   21  A    between atoms: C_47  and  O_49 
REMARK   22  A    between atoms: C_50  and  C_51 
REMARK   23  A    between atoms: C_51  and  C_52 
REMARK   24  A    between atoms: C_52  and  O_54 
REMARK   25  A    between atoms: C_55  and  C_56 
REMARK   26  A    between atoms: C_56  and  C_57 
REMARK   27  A    between atoms: C_57  and  C_58 
REMARK   28  A    between atoms: C_58  and  O_60 
ROOT
ATOM      1  O   UNK d   0      22.286  17.226  -7.115  0.00  0.00    -0.650 OA
ATOM      2  C   UNK d   0      22.833  18.320  -7.380  0.00  0.00     0.139 C 
ENDROOT
BRANCH   2   3
ATOM      3  O   UNK d   0      22.741  18.829  -8.653  0.00  0.00    -0.776 OA
ATOM      4  H   UNK d   0      22.057  19.554  -8.883  0.00  0.00     0.167 HD
ENDBRANCH   2   3
BRANCH   2   5
ATOM      5  C   UNK d   0      23.577  19.060  -6.321  0.00  0.00     0.115 C 
BRANCH   5   6
ATOM      6  C   UNK d   0      24.802  18.287  -5.913  0.00  0.00     0.052 C 
BRANCH   6   7
ATOM      7  C   UNK d   0      24.898  18.097  -4.418  0.00  0.00    -0.020 A 
ATOM      8  C   UNK d   0      25.534  18.850  -3.557  0.00  0.00    -0.011 A 
ATOM      9  C   UNK d   0      25.351  18.268  -2.237  0.00  0.00     0.067 A 
ATOM     10  C   UNK d   0      25.742  18.587  -0.927  0.00  0.00     0.062 C 
ATOM     11  N   UNK d   0      24.594  17.161  -2.389  0.00  0.00    -0.248 NA
ATOM     12  C   UNK d   0      25.232  18.054   0.262  0.00  0.00     0.041 A 
ATOM     13  N   UNK d   0      24.917  16.791   0.604  0.00  0.00    -0.355 N 
ATOM     14  C   UNK d   0      24.915  18.928   1.318  0.00  0.00    -0.022 A 
ATOM     15  C   UNK d   0      24.401  16.841   1.847  0.00  0.00     0.042 A 
ATOM     16  H   UNK d   0      25.075  15.879  -0.013  0.00  0.00     0.166 HD
ATOM     17  C   UNK d   0      23.915  15.811   2.676  0.00  0.00     0.062 C 
ATOM     18  C   UNK d   0      24.384  18.165   2.327  0.00  0.00    -0.013 A 
ATOM     19  C   UNK d   0      23.089  14.764   2.356  0.00  0.00     0.067 A 
ATOM     20  N   UNK d   0      22.856  14.552   1.059  0.00  0.00    -0.248 NA
ATOM     21  C   UNK d   0      22.337  13.763   3.095  0.00  0.00    -0.011 A 
ATOM     22  C   UNK d   0      22.005  13.487   0.895  0.00  0.00     0.066 A 
ATOM     23  C   UNK d   0      21.706  13.131  -0.412  0.00  0.00     0.062 C 
ATOM     24  C   UNK d   0      21.701  13.022   2.234  0.00  0.00    -0.020 A 
ATOM     25  C   UNK d   0      22.239  13.671  -1.593  0.00  0.00     0.041 A 
ATOM     26  N   UNK d   0      22.538  14.928  -1.939  0.00  0.00    -0.355 N 
ATOM     27  C   UNK d   0      22.561  12.792  -2.651  0.00  0.00    -0.022 A 
ATOM     28  C   UNK d   0      23.045  14.882  -3.181  0.00  0.00     0.042 A 
ATOM     29  H   UNK d   0      22.369  15.845  -1.322  0.00  0.00     0.166 HD
ATOM     30  C   UNK d   0      23.524  15.899  -4.021  0.00  0.00     0.062 C 
ATOM     31  C   UNK d   0      23.072  13.550  -3.659  0.00  0.00    -0.013 A 
ATOM     32  C   UNK d   0      24.288  17.003  -3.677  0.00  0.00     0.066 A 
BRANCH   8  33
ATOM     33  C   UNK d   0      26.309  20.069  -3.851  0.00  0.00     0.151 C 
BRANCH  33  34
ATOM     34  C   UNK d   0      25.639  21.297  -3.386  0.00  0.00     0.143 C 
ATOM     35  O   UNK d   0      24.403  21.387  -3.389  0.00  0.00    -0.650 OA
BRANCH  34  36
ATOM     36  O   UNK d   0      26.399  22.356  -2.946  0.00  0.00    -0.776 OA
ATOM     37  H   UNK d   0      26.483  22.572  -1.943  0.00  0.00     0.167 HD
ENDBRANCH  34  36
ENDBRANCH  33  34
ENDBRANCH   8  33
BRANCH  31  38
ATOM     38  C   UNK d   0      23.569  13.042  -4.992  0.00  0.00     0.151 C 
BRANCH  38  39
ATOM     39  C   UNK d   0      24.933  12.560  -4.936  0.00  0.00     0.143 C 
ATOM     40  O   UNK d   0      25.320  11.580  -5.596  0.00  0.00    -0.650 OA
BRANCH  39  41
ATOM     41  O   UNK d   0      25.857  13.210  -4.118  0.00  0.00    -0.776 OA
ATOM     42  H   UNK d   0      25.600  13.325  -3.133  0.00  0.00     0.167 HD
ENDBRANCH  39  41
ENDBRANCH  38  39
ENDBRANCH  31  38
BRANCH  27  43
ATOM     43  C   UNK d   0      22.402  11.295  -2.735  0.00  0.00     0.052 C 
BRANCH  43  44
ATOM     44  C   UNK d   0      23.243  10.555  -1.747  0.00  0.00     0.115 C 
BRANCH  44  45
ATOM     45  C   UNK d   0      24.556  10.316  -2.401  0.00  0.00     0.139 C 
ATOM     46  O   UNK d   0      25.554  10.946  -1.971  0.00  0.00    -0.650 OA
BRANCH  45  47
ATOM     47  O   UNK d   0      24.720   9.434  -3.447  0.00  0.00    -0.776 OA
ATOM     48  H   UNK d   0      24.704   9.730  -4.436  0.00  0.00     0.167 HD
ENDBRANCH  45  47
ENDBRANCH  44  45
ENDBRANCH  43  44
ENDBRANCH  27  43
BRANCH  24  49
ATOM     49  C   UNK d   0      20.849  11.862   2.549  0.00  0.00     0.052 C 
BRANCH  49  50
ATOM     50  C   UNK d   0      19.440  12.311   2.840  0.00  0.00     0.115 C 
BRANCH  50  51
ATOM     51  C   UNK d   0      18.486  12.261   1.741  0.00  0.00     0.139 C 
ATOM     52  O   UNK d   0      18.642  11.519   0.742  0.00  0.00    -0.650 OA
BRANCH  51  53
ATOM     53  O   UNK d   0      17.353  13.060   1.778  0.00  0.00    -0.776 OA
ATOM     54  H   UNK d   0      17.387  13.954   1.320  0.00  0.00     0.167 HD
ENDBRANCH  51  53
ENDBRANCH  50  51
ENDBRANCH  49  50
ENDBRANCH  24  49
BRANCH  21  55
ATOM     55  C   UNK d   0      22.335  13.650   4.583  0.00  0.00     0.151 C 
BRANCH  55  56
ATOM     56  C   UNK d   0      21.232  14.408   5.193  0.00  0.00     0.143 C 
ATOM     57  O   UNK d   0      20.741  14.112   6.300  0.00  0.00    -0.650 OA
BRANCH  56  58
ATOM     58  O   UNK d   0      20.727  15.499   4.489  0.00  0.00    -0.776 OA
ATOM     59  H   UNK d   0      19.990  15.269   3.797  0.00  0.00     0.167 HD
ENDBRANCH  56  58
ENDBRANCH  55  56
ENDBRANCH  21  55
BRANCH  18  60
ATOM     60  C   UNK d   0      23.897  18.700   3.651  0.00  0.00     0.151 C 
BRANCH  60  61
ATOM     61  C   UNK d   0      22.453  18.927   3.489  0.00  0.00     0.143 C 
ATOM     62  O   UNK d   0      21.563  18.077   3.494  0.00  0.00    -0.650 OA
BRANCH  61  63
ATOM     63  O   UNK d   0      22.072  20.279   3.309  0.00  0.00    -0.776 OA
ATOM     64  H   UNK d   0      22.761  21.000   3.192  0.00  0.00     0.167 HD
ENDBRANCH  61  63
ENDBRANCH  60  61
ENDBRANCH  18  60
BRANCH  14  65
ATOM     65  C   UNK d   0      25.165  20.401   1.481  0.00  0.00     0.052 C 
BRANCH  65  66
ATOM     66  C   UNK d   0      26.543  20.708   1.951  0.00  0.00     0.115 C 
BRANCH  66  67
ATOM     67  C   UNK d   0      27.471  21.351   1.063  0.00  0.00     0.139 C 
ATOM     68  O   UNK d   0      28.638  21.653   1.510  0.00  0.00    -0.650 OA
BRANCH  67  69
ATOM     69  O   UNK d   0      27.269  21.707  -0.270  0.00  0.00    -0.776 OA
ATOM     70  H   UNK d   0      27.675  21.070  -0.970  0.00  0.00     0.167 HD
ENDBRANCH  67  69
ENDBRANCH  66  67
ENDBRANCH  65  66
ENDBRANCH  14  65
ENDBRANCH   6   7
ENDBRANCH   5   6
ENDBRANCH   2   5
TORSDOF 28
ENDMDL
MODEL 15
REMARK VINA RESULT:      -7.4     23.880     28.134
REMARK  28 active torsions:
REMARK  status: ('A' for Active; 'I' for Inactive)
REMARK    1  A    between atoms: C_2  and  O_3 
REMARK    2  A    between atoms: C_2  and  C_4 
REMARK    3  A    between atoms: C_4  and  C_5 
REMARK    4  A    between atoms: C_5  and  C_6 
REMARK    5  A    between atoms: C_7  and  C_8 
REMARK    6  A    between atoms: C_8  and  C_9 
REMARK    7  A    between atoms: C_9  and  O_11 
REMARK    8  A    between atoms: C_28  and  C_29 
REMARK    9  A    between atoms: C_29  and  C_30 
REMARK   10  A    between atoms: C_30  and  O_32 
REMARK   11  A    between atoms: C_33  and  C_34 
REMARK   12  A    between atoms: C_34  and  C_35 
REMARK   13  A    between atoms: C_35  and  C_36 
REMARK   14  A    between atoms: C_36  and  O_38 
REMARK   15  A    between atoms: C_39  and  C_40 
REMARK   16  A    between atoms: C_40  and  C_41 
REMARK   17  A    between atoms: C_41  and  C_42 
REMARK   18  A    between atoms: C_42  and  O_44 
REMARK   19  A    between atoms: C_45  and  C_46 
REMARK   20  A    between atoms: C_46  and  C_47 
REMARK   21  A    between atoms: C_47  and  O_49 
REMARK   22  A    between atoms: C_50  and  C_51 
REMARK   23  A    between atoms: C_51  and  C_52 
REMARK   24  A    between atoms: C_52  and  O_54 
REMARK   25  A    between atoms: C_55  and  C_56 
REMARK   26  A    between atoms: C_56  and  C_57 
REMARK   27  A    between atoms: C_57  and  C_58 
REMARK   28  A    between atoms: C_58  and  O_60 
ROOT
ATOM      1  O   UNK d   0      -7.496  29.055   9.615  0.00  0.00    -0.650 OA
ATOM      2  C   UNK d   0      -8.443  28.657  10.329  0.00  0.00     0.139 C 
ENDROOT
BRANCH   2   3
ATOM      3  O   UNK d   0      -9.715  28.637   9.811  0.00  0.00    -0.776 OA
ATOM      4  H   UNK d   0     -10.109  27.783   9.411  0.00  0.00     0.167 HD
ENDBRANCH   2   3
BRANCH   2   5
ATOM      5  C   UNK d   0      -8.188  28.210  11.728  0.00  0.00     0.115 C 
BRANCH   5   6
ATOM      6  C   UNK d   0      -9.408  27.527  12.284  0.00  0.00     0.052 C 
BRANCH   6   7
ATOM      7  C   UNK d   0      -9.193  26.051  12.516  0.00  0.00    -0.020 A 
ATOM      8  C   UNK d   0      -8.887  25.456  13.640  0.00  0.00    -0.011 A 
ATOM      9  C   UNK d   0      -8.774  24.032  13.374  0.00  0.00     0.067 A 
ATOM     10  C   UNK d   0      -8.501  22.879  14.127  0.00  0.00     0.062 C 
ATOM     11  N   UNK d   0      -9.021  23.849  12.059  0.00  0.00    -0.248 NA
ATOM     12  C   UNK d   0      -8.710  21.549  13.746  0.00  0.00     0.041 A 
ATOM     13  N   UNK d   0      -8.473  20.912  12.583  0.00  0.00    -0.355 N 
ATOM     14  C   UNK d   0      -9.318  20.667  14.658  0.00  0.00    -0.022 A 
ATOM     15  C   UNK d   0      -8.923  19.652  12.731  0.00  0.00     0.042 A 
ATOM     16  H   UNK d   0      -7.981  21.340  11.682  0.00  0.00     0.166 HD
ATOM     17  C   UNK d   0      -8.921  18.569  11.829  0.00  0.00     0.062 C 
ATOM     18  C   UNK d   0      -9.459  19.460  14.019  0.00  0.00    -0.013 A 
ATOM     19  C   UNK d   0      -9.261  18.554  10.500  0.00  0.00     0.067 A 
ATOM     20  N   UNK d   0      -9.433  19.737   9.906  0.00  0.00    -0.248 NA
ATOM     21  C   UNK d   0      -9.517  17.532   9.499  0.00  0.00    -0.011 A 
ATOM     22  C   UNK d   0      -9.783  19.563   8.589  0.00  0.00     0.066 A 
ATOM     23  C   UNK d   0      -9.956  20.718   7.840  0.00  0.00     0.062 C 
ATOM     24  C   UNK d   0      -9.826  18.129   8.384  0.00  0.00    -0.020 A 
ATOM     25  C   UNK d   0      -9.729  22.044   8.238  0.00  0.00     0.041 A 
ATOM     26  N   UNK d   0      -9.978  22.681   9.388  0.00  0.00    -0.355 N 
ATOM     27  C   UNK d   0      -9.115  22.927   7.323  0.00  0.00    -0.022 A 
ATOM     28  C   UNK d   0      -9.539  23.941   9.240  0.00  0.00     0.042 A 
ATOM     29  H   UNK d   0     -10.483  22.253  10.289  0.00  0.00     0.166 HD
ATOM     30  C   UNK d   0      -9.542  25.030  10.126  0.00  0.00     0.062 C 
ATOM     31  C   UNK d   0      -8.990  24.129   7.950  0.00  0.00    -0.013 A 
ATOM     32  C   UNK d   0      -9.280  25.025  11.487  0.00  0.00     0.066 A 
BRANCH   8  33
ATOM     33  C   UNK d   0      -8.684  26.095  14.953  0.00  0.00     0.151 C 
BRANCH  33  34
ATOM     34  C   UNK d   0      -7.260  26.219  15.313  0.00  0.00     0.143 C 
ATOM     35  O   UNK d   0      -6.895  26.163  16.497  0.00  0.00    -0.650 OA
BRANCH  34  36
ATOM     36  O   UNK d   0      -6.325  26.400  14.320  0.00  0.00    -0.776 OA
ATOM     37  H   UNK d   0      -5.327  26.519  14.541  0.00  0.00     0.167 HD
ENDBRANCH  34  36
ENDBRANCH  33  34
ENDBRANCH   8  33
BRANCH  31  38
ATOM     38  C   UNK d   0      -8.375  25.379   7.365  0.00  0.00     0.151 C 
BRANCH  38  39
ATOM     39  C   UNK d   0      -9.356  26.399   7.061  0.00  0.00     0.143 C 
ATOM     40  O   UNK d   0     -10.535  26.123   6.777  0.00  0.00    -0.650 OA
BRANCH  39  41
ATOM     41  O   UNK d   0      -8.980  27.741   7.083  0.00  0.00    -0.776 OA
ATOM     42  H   UNK d   0      -8.515  28.076   7.933  0.00  0.00     0.167 HD
ENDBRANCH  39  41
ENDBRANCH  38  39
ENDBRANCH  31  38
BRANCH  27  43
ATOM     43  C   UNK d   0      -8.655  22.675   5.909  0.00  0.00     0.052 C 
BRANCH  43  44
ATOM     44  C   UNK d   0      -9.446  23.427   4.888  0.00  0.00     0.115 C 
BRANCH  44  45
ATOM     45  C   UNK d   0      -8.522  23.710   3.759  0.00  0.00     0.139 C 
ATOM     46  O   UNK d   0      -7.287  23.666   3.981  0.00  0.00    -0.650 OA
BRANCH  45  47
ATOM     47  O   UNK d   0      -8.964  24.011   2.489  0.00  0.00    -0.776 OA
ATOM     48  H   UNK d   0      -8.808  23.389   1.680  0.00  0.00     0.167 HD
ENDBRANCH  45  47
ENDBRANCH  44  45
ENDBRANCH  43  44
ENDBRANCH  27  43
BRANCH  24  49
ATOM     49  C   UNK d   0     -10.123  17.471   7.100  0.00  0.00     0.052 C 
BRANCH  49  50
ATOM     50  C   UNK d   0     -11.579  17.643   6.748  0.00  0.00     0.115 C 
BRANCH  50  51
ATOM     51  C   UNK d   0     -12.485  16.565   7.122  0.00  0.00     0.139 C 
ATOM     52  O   UNK d   0     -13.732  16.691   7.098  0.00  0.00    -0.650 OA
BRANCH  51  53
ATOM     53  O   UNK d   0     -11.969  15.344   7.525  0.00  0.00    -0.776 OA
ATOM     54  H   UNK d   0     -11.347  15.328   8.315  0.00  0.00     0.167 HD
ENDBRANCH  51  53
ENDBRANCH  50  51
ENDBRANCH  49  50
ENDBRANCH  24  49
BRANCH  21  55
ATOM     55  C   UNK d   0      -9.422  16.065   9.760  0.00  0.00     0.151 C 
BRANCH  55  56
ATOM     56  C   UNK d   0     -10.457  15.603  10.697  0.00  0.00     0.143 C 
ATOM     57  O   UNK d   0     -11.677  15.722  10.467  0.00  0.00    -0.650 OA
BRANCH  56  58
ATOM     58  O   UNK d   0     -10.038  15.009  11.887  0.00  0.00    -0.776 OA
ATOM     59  H   UNK d   0      -9.950  15.658  12.690  0.00  0.00     0.167 HD
ENDBRANCH  56  58
ENDBRANCH  55  56
ENDBRANCH  21  55
BRANCH  18  60
ATOM     60  C   UNK d   0     -10.076  18.226  14.630  0.00  0.00     0.151 C 
BRANCH  60  61
ATOM     61  C   UNK d   0     -11.473  18.203  14.170  0.00  0.00     0.143 C 
ATOM     62  O   UNK d   0     -12.366  18.996  14.470  0.00  0.00    -0.650 OA
BRANCH  61  63
ATOM     63  O   UNK d   0     -11.799  17.145  13.288  0.00  0.00    -0.776 OA
ATOM     64  H   UNK d   0     -12.703  16.707  13.316  0.00  0.00     0.167 HD
ENDBRANCH  61  63
ENDBRANCH  60  61
ENDBRANCH  18  60
BRANCH  14  65
ATOM     65  C   UNK d   0      -9.681  20.849  16.104  0.00  0.00     0.052 C 
BRANCH  65  66
ATOM     66  C   UNK d   0      -8.503  21.126  16.969  0.00  0.00     0.115 C 
BRANCH  66  67
ATOM     67  C   UNK d   0      -8.470  22.322  17.764  0.00  0.00     0.139 C 
ATOM     68  O   UNK d   0      -9.298  22.432  18.742  0.00  0.00    -0.650 OA
BRANCH  67  69
ATOM     69  O   UNK d   0      -7.628  23.423  17.613  0.00  0.00    -0.776 OA
ATOM     70  H   UNK d   0      -7.367  23.910  18.483  0.00  0.00     0.167 HD
ENDBRANCH  67  69
ENDBRANCH  66  67
ENDBRANCH  65  66
ENDBRANCH  14  65
ENDBRANCH   6   7
ENDBRANCH   5   6
ENDBRANCH   2   5
TORSDOF 28
ENDMDL
