MODEL 1
REMARK VINA RESULT:     -10.5      0.000      0.000
REMARK  16 active torsions:
REMARK  status: ('A' for Active; 'I' for Inactive)
REMARK    1  A    between atoms: C_6  and  C_7 
REMARK    2  A    between atoms: C_7  and  C_8 
REMARK    3  A    between atoms: C_8  and  C_9 
REMARK    4  A    between atoms: C_9  and  O_11 
REMARK    5  A    between atoms: C_16  and  C_17 
REMARK    6  A    between atoms: C_17  and  C_18 
REMARK    7  A    between atoms: C_18  and  C_19 
REMARK    8  A    between atoms: C_19  and  O_21 
REMARK    9  A    between atoms: C_28  and  C_29 
REMARK   10  A    between atoms: C_29  and  C_30 
REMARK   11  A    between atoms: C_30  and  C_31 
REMARK   12  A    between atoms: C_31  and  O_33 
REMARK   13  A    between atoms: C_42  and  C_43 
REMARK   14  A    between atoms: C_43  and  C_44 
REMARK   15  A    between atoms: C_44  and  C_45 
REMARK   16  A    between atoms: C_45  and  O_47 
ROOT
HETATM    1  C   UNK     0      -6.148 -12.395  18.079  0.00  0.00     0.051 C 
HETATM    2  C   UNK     0      -7.166 -11.273  18.070  0.00  0.00    -0.031 A 
HETATM    3  C   UNK     0      -7.550 -10.425  19.097  0.00  0.00     0.021 A 
HETATM    4  N   UNK     0      -8.517  -9.592  18.643  0.00  0.00    -0.361 N 
HETATM    5  C   UNK     0      -8.751  -9.885  17.347  0.00  0.00     0.022 A 
HETATM    6  C   UNK     0      -7.924 -10.933  16.957  0.00  0.00    -0.027 A 
HETATM    7  C   UNK     0      -9.651  -9.203  16.364  0.00  0.00     0.115 C 
HETATM    8  C   UNK     0      -9.651  -7.684  16.380  0.00  0.00     0.021 A 
HETATM    9  N   UNK     0      -8.625  -6.850  16.610  0.00  0.00    -0.361 N 
HETATM   10  C   UNK     0      -9.104  -5.588  16.617  0.00  0.00     0.022 A 
HETATM   11  C   UNK     0     -10.474  -5.609  16.376  0.00  0.00    -0.027 A 
HETATM   12  C   UNK     0     -10.826  -6.927  16.225  0.00  0.00    -0.031 A 
HETATM   13  C   UNK     0     -12.222  -7.432  15.941  0.00  0.00     0.051 C 
HETATM   14  C   UNK     0      -8.302  -4.322  16.903  0.00  0.00     0.115 C 
HETATM   15  C   UNK     0      -7.675  -4.290  18.287  0.00  0.00     0.021 A 
HETATM   16  N   UNK     0      -6.805  -5.171  18.815  0.00  0.00    -0.361 N 
HETATM   17  C   UNK     0      -6.547  -4.829  20.080  0.00  0.00     0.022 A 
HETATM   18  C   UNK     0      -7.276  -3.663  20.387  0.00  0.00    -0.027 A 
HETATM   19  C   UNK     0      -7.977  -3.335  19.256  0.00  0.00    -0.031 A 
HETATM   20  C   UNK     0      -8.871  -2.113  19.142  0.00  0.00     0.051 C 
HETATM   21  C   UNK     0      -5.700  -5.525  21.121  0.00  0.00     0.115 C 
HETATM   22  C   UNK     0      -5.655  -7.034  21.089  0.00  0.00     0.022 A 
HETATM   23  N   UNK     0      -6.660  -7.890  20.859  0.00  0.00    -0.361 N 
HETATM   24  C   UNK     0      -6.147  -9.134  20.779  0.00  0.00     0.021 A 
HETATM   25  C   UNK     0      -4.780  -9.080  20.973  0.00  0.00    -0.031 A 
HETATM   26  C   UNK     0      -3.778 -10.214  21.014  0.00  0.00     0.051 C 
HETATM   27  C   UNK     0      -4.442  -7.747  21.174  0.00  0.00    -0.027 A 
HETATM   28  C   UNK     0      -6.879 -10.421  20.441  0.00  0.00     0.115 C 
HETATM   29  H   UNK     0      -9.055  -8.830  19.253  0.00  0.00     0.165 HD
HETATM   30  H   UNK     0      -7.553  -7.146  16.719  0.00  0.00     0.165 HD
HETATM   31  H   UNK     0      -6.326  -6.026  18.271  0.00  0.00     0.165 HD
HETATM   32  H   UNK     0      -7.748  -7.628  20.794  0.00  0.00     0.165 HD
ENDROOT
BRANCH   6  33
HETATM   33  C   UNK     0      -7.805 -11.630  15.625  0.00  0.00     0.051 C 
BRANCH  33  34
HETATM   34  C   UNK     0      -9.169 -11.892  15.033  0.00  0.00     0.114 C 
BRANCH  34  35
HETATM   35  C   UNK     0      -8.963 -12.472  13.675  0.00  0.00     0.139 C 
HETATM   36  O   UNK     0      -9.614 -12.025  12.686  0.00  0.00    -0.650 OA
BRANCH  35  37
HETATM   37  O   UNK     0      -8.067 -13.505  13.430  0.00  0.00    -0.776 OA
HETATM   38  H   UNK     0      -7.070 -13.358  13.424  0.00  0.00     0.167 HD
ENDBRANCH  35  37
ENDBRANCH  34  35
ENDBRANCH  33  34
ENDBRANCH   6  33
BRANCH  27  39
HETATM   39  C   UNK     0      -3.058  -7.300  21.488  0.00  0.00     0.051 C 
BRANCH  39  40
HETATM   40  C   UNK     0      -2.745  -6.927  22.868  0.00  0.00     0.114 C 
BRANCH  40  41
HETATM   41  C   UNK     0      -2.442  -5.565  23.247  0.00  0.00     0.139 C 
HETATM   42  O   UNK     0      -2.544  -4.601  22.477  0.00  0.00    -0.650 OA
BRANCH  41  43
HETATM   43  O   UNK     0      -1.999  -5.300  24.575  0.00  0.00    -0.776 OA
HETATM   44  H   UNK     0      -1.834  -6.128  25.134  0.00  0.00     0.167 HD
ENDBRANCH  41  43
ENDBRANCH  40  41
ENDBRANCH  39  40
ENDBRANCH  27  39
BRANCH  11  45
HETATM   45  C   UNK     0     -11.432  -4.452  16.283  0.00  0.00     0.051 C 
BRANCH  45  46
HETATM   46  C   UNK     0     -12.391  -4.367  17.414  0.00  0.00     0.114 C 
BRANCH  46  47
HETATM   47  C   UNK     0     -13.728  -4.047  16.836  0.00  0.00     0.139 C 
HETATM   48  O   UNK     0     -14.582  -3.531  17.571  0.00  0.00    -0.650 OA
BRANCH  47  49
HETATM   49  O   UNK     0     -14.008  -4.319  15.521  0.00  0.00    -0.776 OA
HETATM   50  H   UNK     0     -14.613  -3.711  14.956  0.00  0.00     0.167 HD
ENDBRANCH  47  49
ENDBRANCH  46  47
ENDBRANCH  45  46
ENDBRANCH  11  45
BRANCH  18  51
HETATM   51  C   UNK     0      -7.287  -2.892  21.681  0.00  0.00     0.051 C 
BRANCH  51  52
HETATM   52  C   UNK     0      -6.156  -1.878  21.583  0.00  0.00     0.114 C 
BRANCH  52  53
HETATM   53  C   UNK     0      -5.070  -2.172  22.538  0.00  0.00     0.139 C 
HETATM   54  O   UNK     0      -5.309  -2.816  23.572  0.00  0.00    -0.650 OA
BRANCH  53  55
HETATM   55  O   UNK     0      -3.797  -1.727  22.276  0.00  0.00    -0.776 OA
HETATM   56  H   UNK     0      -3.553  -0.840  21.904  0.00  0.00     0.167 HD
ENDBRANCH  53  55
ENDBRANCH  52  53
ENDBRANCH  51  52
ENDBRANCH  18  51
TORSDOF 16
ENDMDL
MODEL 2
REMARK VINA RESULT:      -9.8      2.496      8.246
REMARK  16 active torsions:
REMARK  status: ('A' for Active; 'I' for Inactive)
REMARK    1  A    between atoms: C_6  and  C_7 
REMARK    2  A    between atoms: C_7  and  C_8 
REMARK    3  A    between atoms: C_8  and  C_9 
REMARK    4  A    between atoms: C_9  and  O_11 
REMARK    5  A    between atoms: C_16  and  C_17 
REMARK    6  A    between atoms: C_17  and  C_18 
REMARK    7  A    between atoms: C_18  and  C_19 
REMARK    8  A    between atoms: C_19  and  O_21 
REMARK    9  A    between atoms: C_28  and  C_29 
REMARK   10  A    between atoms: C_29  and  C_30 
REMARK   11  A    between atoms: C_30  and  C_31 
REMARK   12  A    between atoms: C_31  and  O_33 
REMARK   13  A    between atoms: C_42  and  C_43 
REMARK   14  A    between atoms: C_43  and  C_44 
REMARK   15  A    between atoms: C_44  and  C_45 
REMARK   16  A    between atoms: C_45  and  O_47 
ROOT
HETATM    1  C   UNK     0      -4.418 -13.760  19.950  0.00  0.00     0.051 C 
HETATM    2  C   UNK     0      -4.113 -12.281  20.076  0.00  0.00    -0.031 A 
HETATM    3  C   UNK     0      -4.122 -11.295  19.102  0.00  0.00     0.021 A 
HETATM    4  N   UNK     0      -3.753 -10.118  19.661  0.00  0.00    -0.361 N 
HETATM    5  C   UNK     0      -3.517 -10.331  20.973  0.00  0.00     0.022 A 
HETATM    6  C   UNK     0      -3.730 -11.674  21.265  0.00  0.00    -0.027 A 
HETATM    7  C   UNK     0      -3.175  -9.350  22.050  0.00  0.00     0.115 C 
HETATM    8  C   UNK     0      -3.942  -8.039  22.046  0.00  0.00     0.021 A 
HETATM    9  N   UNK     0      -5.224  -7.821  21.716  0.00  0.00    -0.361 N 
HETATM   10  C   UNK     0      -5.451  -6.491  21.769  0.00  0.00     0.022 A 
HETATM   11  C   UNK     0      -4.285  -5.836  22.154  0.00  0.00    -0.027 A 
HETATM   12  C   UNK     0      -3.330  -6.805  22.330  0.00  0.00    -0.031 A 
HETATM   13  C   UNK     0      -1.901  -6.557  22.756  0.00  0.00     0.051 C 
HETATM   14  C   UNK     0      -6.754  -5.784  21.410  0.00  0.00     0.115 C 
HETATM   15  C   UNK     0      -7.188  -5.988  19.968  0.00  0.00     0.021 A 
HETATM   16  N   UNK     0      -7.443  -7.154  19.344  0.00  0.00    -0.361 N 
HETATM   17  C   UNK     0      -7.727  -6.912  18.062  0.00  0.00     0.022 A 
HETATM   18  C   UNK     0      -7.665  -5.522  17.843  0.00  0.00    -0.027 A 
HETATM   19  C   UNK     0      -7.328  -4.955  19.044  0.00  0.00    -0.031 A 
HETATM   20  C   UNK     0      -7.188  -3.459  19.262  0.00  0.00     0.051 C 
HETATM   21  C   UNK     0      -8.012  -7.875  16.932  0.00  0.00     0.115 C 
HETATM   22  C   UNK     0      -7.289  -9.201  16.947  0.00  0.00     0.022 A 
HETATM   23  N   UNK     0      -6.014  -9.448  17.275  0.00  0.00    -0.361 N 
HETATM   24  C   UNK     0      -5.832 -10.784  17.290  0.00  0.00     0.021 A 
HETATM   25  C   UNK     0      -7.016 -11.412  16.954  0.00  0.00    -0.031 A 
HETATM   26  C   UNK     0      -7.299 -12.892  16.798  0.00  0.00     0.051 C 
HETATM   27  C   UNK     0      -7.963 -10.420  16.729  0.00  0.00    -0.027 A 
HETATM   28  C   UNK     0      -4.582 -11.547  17.694  0.00  0.00     0.115 C 
HETATM   29  H   UNK     0      -3.623  -9.154  19.118  0.00  0.00     0.165 HD
HETATM   30  H   UNK     0      -5.985  -8.608  21.492  0.00  0.00     0.165 HD
HETATM   31  H   UNK     0      -7.469  -8.165  19.828  0.00  0.00     0.165 HD
HETATM   32  H   UNK     0      -5.219  -8.680  17.457  0.00  0.00     0.165 HD
ENDROOT
BRANCH   6  33
HETATM   33  C   UNK     0      -3.597 -12.416  22.571  0.00  0.00     0.051 C 
BRANCH  33  34
HETATM   34  C   UNK     0      -4.777 -12.133  23.470  0.00  0.00     0.114 C 
BRANCH  34  35
HETATM   35  C   UNK     0      -4.249 -11.920  24.848  0.00  0.00     0.139 C 
HETATM   36  O   UNK     0      -3.128 -11.357  25.020  0.00  0.00    -0.650 OA
BRANCH  35  37
HETATM   37  O   UNK     0      -4.941 -12.315  25.985  0.00  0.00    -0.776 OA
HETATM   38  H   UNK     0      -5.891 -12.647  25.944  0.00  0.00     0.167 HD
ENDBRANCH  35  37
ENDBRANCH  34  35
ENDBRANCH  33  34
ENDBRANCH   6  33
BRANCH  27  39
HETATM   39  C   UNK     0      -9.350 -10.711  16.273  0.00  0.00     0.051 C 
BRANCH  39  40
HETATM   40  C   UNK     0      -9.626 -10.695  14.837  0.00  0.00     0.114 C 
BRANCH  40  41
HETATM   41  C   UNK     0      -9.611 -11.898  14.035  0.00  0.00     0.139 C 
HETATM   42  O   UNK     0      -9.378 -11.906  12.819  0.00  0.00    -0.650 OA
BRANCH  41  43
HETATM   43  O   UNK     0      -9.876 -13.149  14.662  0.00  0.00    -0.776 OA
HETATM   44  H   UNK     0     -10.211 -13.078  15.615  0.00  0.00     0.167 HD
ENDBRANCH  41  43
ENDBRANCH  40  41
ENDBRANCH  39  40
ENDBRANCH  27  39
BRANCH  11  45
HETATM   45  C   UNK     0      -4.056  -4.362  22.357  0.00  0.00     0.051 C 
BRANCH  45  46
HETATM   46  C   UNK     0      -4.014  -3.945  23.782  0.00  0.00     0.114 C 
BRANCH  46  47
HETATM   47  C   UNK     0      -5.420  -3.690  24.208  0.00  0.00     0.139 C 
HETATM   48  O   UNK     0      -5.919  -2.581  23.971  0.00  0.00    -0.650 OA
BRANCH  47  49
HETATM   49  O   UNK     0      -6.147  -4.660  24.851  0.00  0.00    -0.776 OA
HETATM   50  H   UNK     0      -7.064  -4.970  24.509  0.00  0.00     0.167 HD
ENDBRANCH  47  49
ENDBRANCH  46  47
ENDBRANCH  45  46
ENDBRANCH  11  45
BRANCH  18  51
HETATM   51  C   UNK     0      -7.932  -4.773  16.563  0.00  0.00     0.051 C 
BRANCH  51  52
HETATM   52  C   UNK     0      -9.441  -4.596  16.480  0.00  0.00     0.114 C 
BRANCH  52  53
HETATM   53  C   UNK     0      -9.857  -3.234  16.868  0.00  0.00     0.139 C 
HETATM   54  O   UNK     0      -9.385  -2.249  16.279  0.00  0.00    -0.650 OA
BRANCH  53  55
HETATM   55  O   UNK     0     -10.764  -3.065  17.886  0.00  0.00    -0.776 OA
HETATM   56  H   UNK     0     -10.723  -3.490  18.782  0.00  0.00     0.167 HD
ENDBRANCH  53  55
ENDBRANCH  52  53
ENDBRANCH  51  52
ENDBRANCH  18  51
TORSDOF 16
ENDMDL
MODEL 3
REMARK VINA RESULT:      -9.6      2.249      8.150
REMARK  16 active torsions:
REMARK  status: ('A' for Active; 'I' for Inactive)
REMARK    1  A    between atoms: C_6  and  C_7 
REMARK    2  A    between atoms: C_7  and  C_8 
REMARK    3  A    between atoms: C_8  and  C_9 
REMARK    4  A    between atoms: C_9  and  O_11 
REMARK    5  A    between atoms: C_16  and  C_17 
REMARK    6  A    between atoms: C_17  and  C_18 
REMARK    7  A    between atoms: C_18  and  C_19 
REMARK    8  A    between atoms: C_19  and  O_21 
REMARK    9  A    between atoms: C_28  and  C_29 
REMARK   10  A    between atoms: C_29  and  C_30 
REMARK   11  A    between atoms: C_30  and  C_31 
REMARK   12  A    between atoms: C_31  and  O_33 
REMARK   13  A    between atoms: C_42  and  C_43 
REMARK   14  A    between atoms: C_43  and  C_44 
REMARK   15  A    between atoms: C_44  and  C_45 
REMARK   16  A    between atoms: C_45  and  O_47 
ROOT
HETATM    1  C   UNK     0      -4.550 -13.037  18.498  0.00  0.00     0.051 C 
HETATM    2  C   UNK     0      -4.505 -11.540  18.726  0.00  0.00    -0.031 A 
HETATM    3  C   UNK     0      -4.814 -10.507  17.855  0.00  0.00     0.021 A 
HETATM    4  N   UNK     0      -4.598  -9.325  18.478  0.00  0.00    -0.361 N 
HETATM    5  C   UNK     0      -4.166  -9.581  19.730  0.00  0.00     0.022 A 
HETATM    6  C   UNK     0      -4.093 -10.957  19.918  0.00  0.00    -0.027 A 
HETATM    7  C   UNK     0      -3.876  -8.631  20.850  0.00  0.00     0.115 C 
HETATM    8  C   UNK     0      -4.862  -7.494  21.052  0.00  0.00     0.021 A 
HETATM    9  N   UNK     0      -6.194  -7.503  20.885  0.00  0.00    -0.361 N 
HETATM   10  C   UNK     0      -6.649  -6.248  21.087  0.00  0.00     0.022 A 
HETATM   11  C   UNK     0      -5.583  -5.411  21.401  0.00  0.00    -0.027 A 
HETATM   12  C   UNK     0      -4.454  -6.189  21.381  0.00  0.00    -0.031 A 
HETATM   13  C   UNK     0      -3.052  -5.703  21.670  0.00  0.00     0.051 C 
HETATM   14  C   UNK     0      -8.094  -5.779  20.940  0.00  0.00     0.115 C 
HETATM   15  C   UNK     0      -8.661  -5.960  19.541  0.00  0.00     0.021 A 
HETATM   16  N   UNK     0      -8.775  -7.106  18.843  0.00  0.00    -0.361 N 
HETATM   17  C   UNK     0      -9.256  -6.833  17.628  0.00  0.00     0.022 A 
HETATM   18  C   UNK     0      -9.475  -5.444  17.533  0.00  0.00    -0.027 A 
HETATM   19  C   UNK     0      -9.099  -4.909  18.738  0.00  0.00    -0.031 A 
HETATM   20  C   UNK     0      -9.208  -3.434  19.077  0.00  0.00     0.051 C 
HETATM   21  C   UNK     0      -9.500  -7.749  16.450  0.00  0.00     0.115 C 
HETATM   22  C   UNK     0      -8.552  -8.911  16.263  0.00  0.00     0.022 A 
HETATM   23  N   UNK     0      -7.223  -8.932  16.426  0.00  0.00    -0.361 N 
HETATM   24  C   UNK     0      -6.801 -10.206  16.297  0.00  0.00     0.021 A 
HETATM   25  C   UNK     0      -7.884 -11.024  16.034  0.00  0.00    -0.031 A 
HETATM   26  C   UNK     0      -7.911 -12.516  15.774  0.00  0.00     0.051 C 
HETATM   27  C   UNK     0      -9.016 -10.217  16.008  0.00  0.00    -0.027 A 
HETATM   28  C   UNK     0      -5.393 -10.743  16.489  0.00  0.00     0.115 C 
HETATM   29  H   UNK     0      -4.715  -8.317  18.016  0.00  0.00     0.165 HD
HETATM   30  H   UNK     0      -6.822  -8.403  20.674  0.00  0.00     0.165 HD
HETATM   31  H   UNK     0      -8.557  -8.135  19.231  0.00  0.00     0.165 HD
HETATM   32  H   UNK     0      -6.564  -8.041  16.591  0.00  0.00     0.165 HD
ENDROOT
BRANCH   6  33
HETATM   33  C   UNK     0      -3.666 -11.750  21.127  0.00  0.00     0.051 C 
BRANCH  33  34
HETATM   34  C   UNK     0      -4.856 -12.090  21.992  0.00  0.00     0.114 C 
BRANCH  34  35
HETATM   35  C   UNK     0      -4.433 -11.934  23.414  0.00  0.00     0.139 C 
HETATM   36  O   UNK     0      -3.697 -10.965  23.757  0.00  0.00    -0.650 OA
BRANCH  35  37
HETATM   37  O   UNK     0      -4.819 -12.822  24.411  0.00  0.00    -0.776 OA
HETATM   38  H   UNK     0      -4.147 -13.322  24.971  0.00  0.00     0.167 HD
ENDBRANCH  35  37
ENDBRANCH  34  35
ENDBRANCH  33  34
ENDBRANCH   6  33
BRANCH  27  39
HETATM   39  C   UNK     0     -10.372 -10.735  15.681  0.00  0.00     0.051 C 
BRANCH  39  40
HETATM   40  C   UNK     0     -10.933 -10.432  14.365  0.00  0.00     0.114 C 
BRANCH  40  41
HETATM   41  C   UNK     0     -10.999 -11.418  13.309  0.00  0.00     0.139 C 
HETATM   42  O   UNK     0     -12.061 -11.857  12.850  0.00  0.00    -0.650 OA
BRANCH  41  43
HETATM   43  O   UNK     0      -9.787 -11.921  12.757  0.00  0.00    -0.776 OA
HETATM   44  H   UNK     0      -9.901 -12.429  11.888  0.00  0.00     0.167 HD
ENDBRANCH  41  43
ENDBRANCH  40  41
ENDBRANCH  39  40
ENDBRANCH  27  39
BRANCH  11  45
HETATM   45  C   UNK     0      -5.602  -3.938  21.714  0.00  0.00     0.051 C 
BRANCH  45  46
HETATM   46  C   UNK     0      -5.510  -3.625  23.162  0.00  0.00     0.114 C 
BRANCH  46  47
HETATM   47  C   UNK     0      -6.648  -2.720  23.492  0.00  0.00     0.139 C 
HETATM   48  O   UNK     0      -6.403  -1.636  24.039  0.00  0.00    -0.650 OA
BRANCH  47  49
HETATM   49  O   UNK     0      -7.939  -3.079  23.198  0.00  0.00    -0.776 OA
HETATM   50  H   UNK     0      -8.325  -2.999  22.250  0.00  0.00     0.167 HD
ENDBRANCH  47  49
ENDBRANCH  46  47
ENDBRANCH  45  46
ENDBRANCH  11  45
BRANCH  18  51
HETATM   51  C   UNK     0     -10.032  -4.672  16.365  0.00  0.00     0.051 C 
BRANCH  51  52
HETATM   52  C   UNK     0     -11.390  -4.150  16.808  0.00  0.00     0.114 C 
BRANCH  52  53
HETATM   53  C   UNK     0     -12.497  -4.879  16.159  0.00  0.00     0.139 C 
HETATM   54  O   UNK     0     -12.829  -6.001  16.573  0.00  0.00    -0.650 OA
BRANCH  53  55
HETATM   55  O   UNK     0     -13.153  -4.310  15.095  0.00  0.00    -0.776 OA
HETATM   56  H   UNK     0     -12.790  -3.611  14.491  0.00  0.00     0.167 HD
ENDBRANCH  53  55
ENDBRANCH  52  53
ENDBRANCH  51  52
ENDBRANCH  18  51
TORSDOF 16
ENDMDL
MODEL 4
REMARK VINA RESULT:      -9.6      2.531      7.989
REMARK  16 active torsions:
REMARK  status: ('A' for Active; 'I' for Inactive)
REMARK    1  A    between atoms: C_6  and  C_7 
REMARK    2  A    between atoms: C_7  and  C_8 
REMARK    3  A    between atoms: C_8  and  C_9 
REMARK    4  A    between atoms: C_9  and  O_11 
REMARK    5  A    between atoms: C_16  and  C_17 
REMARK    6  A    between atoms: C_17  and  C_18 
REMARK    7  A    between atoms: C_18  and  C_19 
REMARK    8  A    between atoms: C_19  and  O_21 
REMARK    9  A    between atoms: C_28  and  C_29 
REMARK   10  A    between atoms: C_29  and  C_30 
REMARK   11  A    between atoms: C_30  and  C_31 
REMARK   12  A    between atoms: C_31  and  O_33 
REMARK   13  A    between atoms: C_42  and  C_43 
REMARK   14  A    between atoms: C_43  and  C_44 
REMARK   15  A    between atoms: C_44  and  C_45 
REMARK   16  A    between atoms: C_45  and  O_47 
ROOT
HETATM    1  C   UNK     0      -6.020 -13.815  16.640  0.00  0.00     0.051 C 
HETATM    2  C   UNK     0      -5.781 -12.414  17.165  0.00  0.00    -0.031 A 
HETATM    3  C   UNK     0      -6.008 -11.194  16.549  0.00  0.00     0.021 A 
HETATM    4  N   UNK     0      -5.616 -10.200  17.382  0.00  0.00    -0.361 N 
HETATM    5  C   UNK     0      -5.152 -10.760  18.517  0.00  0.00     0.022 A 
HETATM    6  C   UNK     0      -5.237 -12.145  18.414  0.00  0.00    -0.027 A 
HETATM    7  C   UNK     0      -4.688 -10.106  19.781  0.00  0.00     0.115 C 
HETATM    8  C   UNK     0      -5.516  -8.938  20.287  0.00  0.00     0.021 A 
HETATM    9  N   UNK     0      -6.846  -8.767  20.227  0.00  0.00    -0.361 N 
HETATM   10  C   UNK     0      -7.134  -7.542  20.715  0.00  0.00     0.022 A 
HETATM   11  C   UNK     0      -5.958  -6.910  21.109  0.00  0.00    -0.027 A 
HETATM   12  C   UNK     0      -4.935  -7.784  20.843  0.00  0.00    -0.031 A 
HETATM   13  C   UNK     0      -3.470  -7.524  21.114  0.00  0.00     0.051 C 
HETATM   14  C   UNK     0      -8.516  -6.899  20.780  0.00  0.00     0.115 C 
HETATM   15  C   UNK     0      -9.175  -6.718  19.422  0.00  0.00     0.021 A 
HETATM   16  N   UNK     0      -9.466  -7.671  18.516  0.00  0.00    -0.361 N 
HETATM   17  C   UNK     0      -9.975  -7.096  17.424  0.00  0.00     0.022 A 
HETATM   18  C   UNK     0     -10.028  -5.704  17.631  0.00  0.00    -0.027 A 
HETATM   19  C   UNK     0      -9.525  -5.480  18.887  0.00  0.00    -0.031 A 
HETATM   20  C   UNK     0      -9.434  -4.107  19.527  0.00  0.00     0.051 C 
HETATM   21  C   UNK     0     -10.392  -7.711  16.107  0.00  0.00     0.115 C 
HETATM   22  C   UNK     0      -9.604  -8.902  15.613  0.00  0.00     0.022 A 
HETATM   23  N   UNK     0      -8.281  -9.101  15.664  0.00  0.00    -0.361 N 
HETATM   24  C   UNK     0      -8.025 -10.357  15.246  0.00  0.00     0.021 A 
HETATM   25  C   UNK     0      -9.212 -10.979  14.907  0.00  0.00    -0.031 A 
HETATM   26  C   UNK     0      -9.434 -12.370  14.351  0.00  0.00     0.051 C 
HETATM   27  C   UNK     0     -10.237 -10.067  15.134  0.00  0.00    -0.027 A 
HETATM   28  C   UNK     0      -6.684 -11.071  15.213  0.00  0.00     0.115 C 
HETATM   29  H   UNK     0      -5.634  -9.111  17.145  0.00  0.00     0.165 HD
HETATM   30  H   UNK     0      -7.589  -9.529  19.887  0.00  0.00     0.165 HD
HETATM   31  H   UNK     0      -9.354  -8.776  18.668  0.00  0.00     0.165 HD
HETATM   32  H   UNK     0      -7.510  -8.341  15.955  0.00  0.00     0.165 HD
ENDROOT
BRANCH   6  33
HETATM   33  C   UNK     0      -4.845 -13.217  19.399  0.00  0.00     0.051 C 
BRANCH  33  34
HETATM   34  C   UNK     0      -5.487 -12.969  20.744  0.00  0.00     0.114 C 
BRANCH  34  35
HETATM   35  C   UNK     0      -6.965 -13.039  20.552  0.00  0.00     0.139 C 
HETATM   36  O   UNK     0      -7.529 -14.154  20.352  0.00  0.00    -0.650 OA
BRANCH  35  37
HETATM   37  O   UNK     0      -7.779 -11.914  20.586  0.00  0.00    -0.776 OA
HETATM   38  H   UNK     0      -8.248 -11.568  19.764  0.00  0.00     0.167 HD
ENDBRANCH  35  37
ENDBRANCH  34  35
ENDBRANCH  33  34
ENDBRANCH   6  33
BRANCH  27  39
HETATM   39  C   UNK     0     -11.662 -10.355  14.816  0.00  0.00     0.051 C 
BRANCH  39  40
HETATM   40  C   UNK     0     -12.313 -11.473  15.499  0.00  0.00     0.114 C 
BRANCH  40  41
HETATM   41  C   UNK     0     -13.415 -12.199  14.909  0.00  0.00     0.139 C 
HETATM   42  O   UNK     0     -13.570 -12.333  13.687  0.00  0.00    -0.650 OA
BRANCH  41  43
HETATM   43  O   UNK     0     -14.384 -12.799  15.763  0.00  0.00    -0.776 OA
HETATM   44  H   UNK     0     -14.005 -13.185  16.620  0.00  0.00     0.167 HD
ENDBRANCH  41  43
ENDBRANCH  40  41
ENDBRANCH  39  40
ENDBRANCH  27  39
BRANCH  11  45
HETATM   45  C   UNK     0      -5.781  -5.544  21.715  0.00  0.00     0.051 C 
BRANCH  45  46
HETATM   46  C   UNK     0      -6.141  -4.426  20.807  0.00  0.00     0.114 C 
BRANCH  46  47
HETATM   47  C   UNK     0      -6.481  -3.253  21.662  0.00  0.00     0.139 C 
HETATM   48  O   UNK     0      -5.698  -2.293  21.690  0.00  0.00    -0.650 OA
BRANCH  47  49
HETATM   49  O   UNK     0      -7.635  -3.236  22.405  0.00  0.00    -0.776 OA
HETATM   50  H   UNK     0      -8.515  -3.631  22.053  0.00  0.00     0.167 HD
ENDBRANCH  47  49
ENDBRANCH  46  47
ENDBRANCH  45  46
ENDBRANCH  11  45
BRANCH  18  51
HETATM   51  C   UNK     0     -10.548  -4.646  16.693  0.00  0.00     0.051 C 
BRANCH  51  52
HETATM   52  C   UNK     0     -11.957  -4.315  17.163  0.00  0.00     0.114 C 
BRANCH  52  53
HETATM   53  C   UNK     0     -12.983  -4.890  16.272  0.00  0.00     0.139 C 
HETATM   54  O   UNK     0     -13.582  -5.926  16.602  0.00  0.00    -0.650 OA
BRANCH  53  55
HETATM   55  O   UNK     0     -13.267  -4.275  15.078  0.00  0.00    -0.776 OA
HETATM   56  H   UNK     0     -12.654  -4.195  14.301  0.00  0.00     0.167 HD
ENDBRANCH  53  55
ENDBRANCH  52  53
ENDBRANCH  51  52
ENDBRANCH  18  51
TORSDOF 16
ENDMDL
MODEL 5
REMARK VINA RESULT:      -9.5      4.152      6.035
REMARK  16 active torsions:
REMARK  status: ('A' for Active; 'I' for Inactive)
REMARK    1  A    between atoms: C_6  and  C_7 
REMARK    2  A    between atoms: C_7  and  C_8 
REMARK    3  A    between atoms: C_8  and  C_9 
REMARK    4  A    between atoms: C_9  and  O_11 
REMARK    5  A    between atoms: C_16  and  C_17 
REMARK    6  A    between atoms: C_17  and  C_18 
REMARK    7  A    between atoms: C_18  and  C_19 
REMARK    8  A    between atoms: C_19  and  O_21 
REMARK    9  A    between atoms: C_28  and  C_29 
REMARK   10  A    between atoms: C_29  and  C_30 
REMARK   11  A    between atoms: C_30  and  C_31 
REMARK   12  A    between atoms: C_31  and  O_33 
REMARK   13  A    between atoms: C_42  and  C_43 
REMARK   14  A    between atoms: C_43  and  C_44 
REMARK   15  A    between atoms: C_44  and  C_45 
REMARK   16  A    between atoms: C_45  and  O_47 
ROOT
HETATM    1  C   UNK     0       0.197 -12.875  21.739  0.00  0.00     0.051 C 
HETATM    2  C   UNK     0      -1.251 -12.430  21.725  0.00  0.00    -0.031 A 
HETATM    3  C   UNK     0      -1.893 -11.501  22.528  0.00  0.00     0.021 A 
HETATM    4  N   UNK     0      -3.201 -11.446  22.181  0.00  0.00    -0.361 N 
HETATM    5  C   UNK     0      -3.404 -12.314  21.169  0.00  0.00     0.022 A 
HETATM    6  C   UNK     0      -2.206 -12.949  20.861  0.00  0.00    -0.027 A 
HETATM    7  C   UNK     0      -4.642 -12.568  20.367  0.00  0.00     0.115 C 
HETATM    8  C   UNK     0      -5.440 -11.348  19.941  0.00  0.00     0.021 A 
HETATM    9  N   UNK     0      -4.988 -10.137  19.583  0.00  0.00    -0.361 N 
HETATM   10  C   UNK     0      -6.054  -9.336  19.374  0.00  0.00     0.022 A 
HETATM   11  C   UNK     0      -7.226 -10.054  19.594  0.00  0.00    -0.027 A 
HETATM   12  C   UNK     0      -6.846 -11.323  19.951  0.00  0.00    -0.031 A 
HETATM   13  C   UNK     0      -7.790 -12.458  20.281  0.00  0.00     0.051 C 
HETATM   14  C   UNK     0      -6.012  -7.854  19.012  0.00  0.00     0.115 C 
HETATM   15  C   UNK     0      -5.329  -6.985  20.056  0.00  0.00     0.021 A 
HETATM   16  N   UNK     0      -4.068  -7.090  20.515  0.00  0.00    -0.361 N 
HETATM   17  C   UNK     0      -3.874  -6.185  21.476  0.00  0.00     0.022 A 
HETATM   18  C   UNK     0      -5.062  -5.448  21.646  0.00  0.00    -0.027 A 
HETATM   19  C   UNK     0      -5.965  -5.958  20.749  0.00  0.00    -0.031 A 
HETATM   20  C   UNK     0      -7.374  -5.421  20.573  0.00  0.00     0.051 C 
HETATM   21  C   UNK     0      -2.666  -5.941  22.353  0.00  0.00     0.115 C 
HETATM   22  C   UNK     0      -1.837  -7.141  22.748  0.00  0.00     0.022 A 
HETATM   23  N   UNK     0      -2.261  -8.361  23.105  0.00  0.00    -0.361 N 
HETATM   24  C   UNK     0      -1.184  -9.162  23.232  0.00  0.00     0.021 A 
HETATM   25  C   UNK     0      -0.039  -8.438  22.961  0.00  0.00    -0.031 A 
HETATM   26  C   UNK     0       1.407  -8.887  23.011  0.00  0.00     0.051 C 
HETATM   27  C   UNK     0      -0.431  -7.142  22.649  0.00  0.00    -0.027 A 
HETATM   28  C   UNK     0      -1.164 -10.651  23.531  0.00  0.00     0.115 C 
HETATM   29  H   UNK     0      -3.979 -10.824  22.681  0.00  0.00     0.165 HD
HETATM   30  H   UNK     0      -3.917  -9.857  19.429  0.00  0.00     0.165 HD
HETATM   31  H   UNK     0      -3.282  -7.786  20.120  0.00  0.00     0.165 HD
HETATM   32  H   UNK     0      -3.322  -8.657  23.312  0.00  0.00     0.165 HD
ENDROOT
BRANCH   6  33
HETATM   33  C   UNK     0      -1.903 -13.999  19.822  0.00  0.00     0.051 C 
BRANCH  33  34
HETATM   34  C   UNK     0      -1.646 -13.362  18.476  0.00  0.00     0.114 C 
BRANCH  34  35
HETATM   35  C   UNK     0      -0.603 -14.177  17.789  0.00  0.00     0.139 C 
HETATM   36  O   UNK     0      -0.733 -15.432  17.698  0.00  0.00    -0.650 OA
BRANCH  35  37
HETATM   37  O   UNK     0       0.535 -13.614  17.225  0.00  0.00    -0.776 OA
HETATM   38  H   UNK     0       1.370 -13.445  17.762  0.00  0.00     0.167 HD
ENDBRANCH  35  37
ENDBRANCH  34  35
ENDBRANCH  33  34
ENDBRANCH   6  33
BRANCH  27  39
HETATM   39  C   UNK     0       0.537  -6.047  22.367  0.00  0.00     0.051 C 
BRANCH  39  40
HETATM   40  C   UNK     0       0.581  -4.907  23.282  0.00  0.00     0.114 C 
BRANCH  40  41
HETATM   41  C   UNK     0       0.203  -3.574  22.870  0.00  0.00     0.139 C 
HETATM   42  O   UNK     0       0.427  -2.560  23.546  0.00  0.00    -0.650 OA
BRANCH  41  43
HETATM   43  O   UNK     0      -0.464  -3.398  21.624  0.00  0.00    -0.776 OA
HETATM   44  H   UNK     0       0.131  -3.066  20.874  0.00  0.00     0.167 HD
ENDBRANCH  41  43
ENDBRANCH  40  41
ENDBRANCH  39  40
ENDBRANCH  27  39
BRANCH  11  45
HETATM   45  C   UNK     0      -8.652  -9.589  19.476  0.00  0.00     0.051 C 
BRANCH  45  46
HETATM   46  C   UNK     0      -9.092  -8.698  20.580  0.00  0.00     0.114 C 
BRANCH  46  47
HETATM   47  C   UNK     0      -9.793  -9.551  21.583  0.00  0.00     0.139 C 
HETATM   48  O   UNK     0     -10.965  -9.885  21.360  0.00  0.00    -0.650 OA
BRANCH  47  49
HETATM   49  O   UNK     0      -9.156  -9.957  22.728  0.00  0.00    -0.776 OA
HETATM   50  H   UNK     0      -8.553  -9.327  23.269  0.00  0.00     0.167 HD
ENDBRANCH  47  49
ENDBRANCH  46  47
ENDBRANCH  45  46
ENDBRANCH  11  45
BRANCH  18  51
HETATM   51  C   UNK     0      -5.317  -4.306  22.595  0.00  0.00     0.051 C 
BRANCH  51  52
HETATM   52  C   UNK     0      -4.840  -3.047  21.885  0.00  0.00     0.114 C 
BRANCH  52  53
HETATM   53  C   UNK     0      -3.762  -2.370  22.631  0.00  0.00     0.139 C 
HETATM   54  O   UNK     0      -3.729  -2.435  23.870  0.00  0.00    -0.650 OA
BRANCH  53  55
HETATM   55  O   UNK     0      -2.801  -1.667  21.948  0.00  0.00    -0.776 OA
HETATM   56  H   UNK     0      -1.825  -1.848  21.961  0.00  0.00     0.167 HD
ENDBRANCH  53  55
ENDBRANCH  52  53
ENDBRANCH  51  52
ENDBRANCH  18  51
TORSDOF 16
ENDMDL
MODEL 6
REMARK VINA RESULT:      -9.4     28.073     31.124
REMARK  16 active torsions:
REMARK  status: ('A' for Active; 'I' for Inactive)
REMARK    1  A    between atoms: C_6  and  C_7 
REMARK    2  A    between atoms: C_7  and  C_8 
REMARK    3  A    between atoms: C_8  and  C_9 
REMARK    4  A    between atoms: C_9  and  O_11 
REMARK    5  A    between atoms: C_16  and  C_17 
REMARK    6  A    between atoms: C_17  and  C_18 
REMARK    7  A    between atoms: C_18  and  C_19 
REMARK    8  A    between atoms: C_19  and  O_21 
REMARK    9  A    between atoms: C_28  and  C_29 
REMARK   10  A    between atoms: C_29  and  C_30 
REMARK   11  A    between atoms: C_30  and  C_31 
REMARK   12  A    between atoms: C_31  and  O_33 
REMARK   13  A    between atoms: C_42  and  C_43 
REMARK   14  A    between atoms: C_43  and  C_44 
REMARK   15  A    between atoms: C_44  and  C_45 
REMARK   16  A    between atoms: C_45  and  O_47 
ROOT
HETATM    1  C   UNK     0      13.247  11.191  11.982  0.00  0.00     0.051 C 
HETATM    2  C   UNK     0      12.963  10.432  10.702  0.00  0.00    -0.031 A 
HETATM    3  C   UNK     0      12.107  10.753   9.660  0.00  0.00     0.021 A 
HETATM    4  N   UNK     0      12.150   9.766   8.734  0.00  0.00    -0.361 N 
HETATM    5  C   UNK     0      13.021   8.827   9.159  0.00  0.00     0.022 A 
HETATM    6  C   UNK     0      13.546   9.211  10.388  0.00  0.00    -0.027 A 
HETATM    7  C   UNK     0      13.498   7.589   8.467  0.00  0.00     0.115 C 
HETATM    8  C   UNK     0      13.822   7.716   6.988  0.00  0.00     0.021 A 
HETATM    9  N   UNK     0      14.364   8.757   6.338  0.00  0.00    -0.361 N 
HETATM   10  C   UNK     0      14.384   8.464   5.020  0.00  0.00     0.022 A 
HETATM   11  C   UNK     0      13.849   7.195   4.818  0.00  0.00    -0.027 A 
HETATM   12  C   UNK     0      13.494   6.718   6.054  0.00  0.00    -0.031 A 
HETATM   13  C   UNK     0      12.873   5.366   6.323  0.00  0.00     0.051 C 
HETATM   14  C   UNK     0      14.857   9.385   3.899  0.00  0.00     0.115 C 
HETATM   15  C   UNK     0      14.065  10.678   3.789  0.00  0.00     0.021 A 
HETATM   16  N   UNK     0      13.899  11.622   4.734  0.00  0.00    -0.361 N 
HETATM   17  C   UNK     0      13.078  12.567   4.270  0.00  0.00     0.022 A 
HETATM   18  C   UNK     0      12.698  12.227   2.957  0.00  0.00    -0.027 A 
HETATM   19  C   UNK     0      13.324  11.042   2.667  0.00  0.00    -0.031 A 
HETATM   20  C   UNK     0      13.214  10.335   1.328  0.00  0.00     0.051 C 
HETATM   21  C   UNK     0      12.521  13.793   4.957  0.00  0.00     0.115 C 
HETATM   22  C   UNK     0      12.235  13.694   6.437  0.00  0.00     0.022 A 
HETATM   23  N   UNK     0      11.701  12.669   7.113  0.00  0.00    -0.361 N 
HETATM   24  C   UNK     0      11.762  12.951   8.430  0.00  0.00     0.021 A 
HETATM   25  C   UNK     0      12.341  14.193   8.606  0.00  0.00    -0.031 A 
HETATM   26  C   UNK     0      12.588  14.956   9.891  0.00  0.00     0.051 C 
HETATM   27  C   UNK     0      12.652  14.689   7.345  0.00  0.00    -0.027 A 
HETATM   28  C   UNK     0      11.364  12.057   9.592  0.00  0.00     0.115 C 
HETATM   29  H   UNK     0      11.535   9.720   7.806  0.00  0.00     0.165 HD
HETATM   30  H   UNK     0      14.779   9.681   6.811  0.00  0.00     0.165 HD
HETATM   31  H   UNK     0      14.409  11.647   5.732  0.00  0.00     0.165 HD
HETATM   32  H   UNK     0      11.235  11.753   6.663  0.00  0.00     0.165 HD
ENDROOT
BRANCH   6  33
HETATM   33  C   UNK     0      14.544   8.513  11.277  0.00  0.00     0.051 C 
BRANCH  33  34
HETATM   34  C   UNK     0      13.864   7.467  12.127  0.00  0.00     0.114 C 
BRANCH  34  35
HETATM   35  C   UNK     0      14.730   6.253  12.120  0.00  0.00     0.139 C 
HETATM   36  O   UNK     0      15.739   6.195  11.359  0.00  0.00    -0.650 OA
BRANCH  35  37
HETATM   37  O   UNK     0      14.483   5.151  12.930  0.00  0.00    -0.776 OA
HETATM   38  H   UNK     0      15.221   4.539  13.239  0.00  0.00     0.167 HD
ENDBRANCH  35  37
ENDBRANCH  34  35
ENDBRANCH  33  34
ENDBRANCH   6  33
BRANCH  27  39
HETATM   39  C   UNK     0      13.229  16.043   7.126  0.00  0.00     0.051 C 
BRANCH  39  40
HETATM   40  C   UNK     0      12.311  17.163   6.916  0.00  0.00     0.114 C 
BRANCH  40  41
HETATM   41  C   UNK     0      11.373  17.194   5.816  0.00  0.00     0.139 C 
HETATM   42  O   UNK     0      10.144  17.161   5.964  0.00  0.00    -0.650 OA
BRANCH  41  43
HETATM   43  O   UNK     0      11.873  17.265   4.484  0.00  0.00    -0.776 OA
HETATM   44  H   UNK     0      12.499  18.043   4.313  0.00  0.00     0.167 HD
ENDBRANCH  41  43
ENDBRANCH  40  41
ENDBRANCH  39  40
ENDBRANCH  27  39
BRANCH  11  45
HETATM   45  C   UNK     0      13.674   6.442   3.526  0.00  0.00     0.051 C 
BRANCH  45  46
HETATM   46  C   UNK     0      14.890   5.719   3.076  0.00  0.00     0.114 C 
BRANCH  46  47
HETATM   47  C   UNK     0      15.184   6.172   1.686  0.00  0.00     0.139 C 
HETATM   48  O   UNK     0      14.417   6.987   1.154  0.00  0.00    -0.650 OA
BRANCH  47  49
HETATM   49  O   UNK     0      16.279   5.697   1.009  0.00  0.00    -0.776 OA
HETATM   50  H   UNK     0      16.711   4.794   1.237  0.00  0.00     0.167 HD
ENDBRANCH  47  49
ENDBRANCH  46  47
ENDBRANCH  45  46
ENDBRANCH  11  45
BRANCH  18  51
HETATM   51  C   UNK     0      11.805  13.000   2.021  0.00  0.00     0.051 C 
BRANCH  51  52
HETATM   52  C   UNK     0      12.714  13.936   1.240  0.00  0.00     0.114 C 
BRANCH  52  53
HETATM   53  C   UNK     0      12.277  15.342   1.346  0.00  0.00     0.139 C 
HETATM   54  O   UNK     0      11.418  15.664   2.183  0.00  0.00    -0.650 OA
BRANCH  53  55
HETATM   55  O   UNK     0      12.822  16.288   0.513  0.00  0.00    -0.776 OA
HETATM   56  H   UNK     0      12.773  17.272   0.635  0.00  0.00     0.167 HD
ENDBRANCH  53  55
ENDBRANCH  52  53
ENDBRANCH  51  52
ENDBRANCH  18  51
TORSDOF 16
ENDMDL
MODEL 7
REMARK VINA RESULT:      -9.4     29.421     32.438
REMARK  16 active torsions:
REMARK  status: ('A' for Active; 'I' for Inactive)
REMARK    1  A    between atoms: C_6  and  C_7 
REMARK    2  A    between atoms: C_7  and  C_8 
REMARK    3  A    between atoms: C_8  and  C_9 
REMARK    4  A    between atoms: C_9  and  O_11 
REMARK    5  A    between atoms: C_16  and  C_17 
REMARK    6  A    between atoms: C_17  and  C_18 
REMARK    7  A    between atoms: C_18  and  C_19 
REMARK    8  A    between atoms: C_19  and  O_21 
REMARK    9  A    between atoms: C_28  and  C_29 
REMARK   10  A    between atoms: C_29  and  C_30 
REMARK   11  A    between atoms: C_30  and  C_31 
REMARK   12  A    between atoms: C_31  and  O_33 
REMARK   13  A    between atoms: C_42  and  C_43 
REMARK   14  A    between atoms: C_43  and  C_44 
REMARK   15  A    between atoms: C_44  and  C_45 
REMARK   16  A    between atoms: C_45  and  O_47 
ROOT
HETATM    1  C   UNK     0      13.867   8.904   9.513  0.00  0.00     0.051 C 
HETATM    2  C   UNK     0      13.876  10.306   8.940  0.00  0.00    -0.031 A 
HETATM    3  C   UNK     0      14.610  10.819   7.881  0.00  0.00     0.021 A 
HETATM    4  N   UNK     0      14.321  12.134   7.740  0.00  0.00    -0.361 N 
HETATM    5  C   UNK     0      13.412  12.469   8.680  0.00  0.00     0.022 A 
HETATM    6  C   UNK     0      13.114  11.349   9.449  0.00  0.00    -0.027 A 
HETATM    7  C   UNK     0      12.699  13.767   8.894  0.00  0.00     0.115 C 
HETATM    8  C   UNK     0      12.189  14.478   7.653  0.00  0.00     0.021 A 
HETATM    9  N   UNK     0      11.689  13.942   6.529  0.00  0.00    -0.361 N 
HETATM   10  C   UNK     0      11.450  14.944   5.657  0.00  0.00     0.022 A 
HETATM   11  C   UNK     0      11.796  16.160   6.239  0.00  0.00    -0.027 A 
HETATM   12  C   UNK     0      12.262  15.873   7.497  0.00  0.00    -0.031 A 
HETATM   13  C   UNK     0      12.750  16.893   8.502  0.00  0.00     0.051 C 
HETATM   14  C   UNK     0      10.938  14.792   4.227  0.00  0.00     0.115 C 
HETATM   15  C   UNK     0      11.855  13.979   3.328  0.00  0.00     0.021 A 
HETATM   16  N   UNK     0      12.262  12.708   3.505  0.00  0.00    -0.361 N 
HETATM   17  C   UNK     0      13.117  12.383   2.532  0.00  0.00     0.022 A 
HETATM   18  C   UNK     0      13.266  13.491   1.675  0.00  0.00    -0.027 A 
HETATM   19  C   UNK     0      12.469  14.484   2.184  0.00  0.00    -0.031 A 
HETATM   20  C   UNK     0      12.305  15.848   1.539  0.00  0.00     0.051 C 
HETATM   21  C   UNK     0      13.906  11.111   2.318  0.00  0.00     0.115 C 
HETATM   22  C   UNK     0      14.382  10.370   3.545  0.00  0.00     0.022 A 
HETATM   23  N   UNK     0      14.881  10.878   4.680  0.00  0.00    -0.361 N 
HETATM   24  C   UNK     0      15.038   9.870   5.561  0.00  0.00     0.021 A 
HETATM   25  C   UNK     0      14.642   8.683   4.976  0.00  0.00    -0.031 A 
HETATM   26  C   UNK     0      14.670   7.281   5.550  0.00  0.00     0.051 C 
HETATM   27  C   UNK     0      14.218   8.977   3.685  0.00  0.00    -0.027 A 
HETATM   28  C   UNK     0      15.486   9.963   7.010  0.00  0.00     0.115 C 
HETATM   29  H   UNK     0      14.790  12.826   7.003  0.00  0.00     0.165 HD
HETATM   30  H   UNK     0      11.457  12.861   6.365  0.00  0.00     0.165 HD
HETATM   31  H   UNK     0      11.904  12.010   4.305  0.00  0.00     0.165 HD
HETATM   32  H   UNK     0      15.167  11.948   4.855  0.00  0.00     0.165 HD
ENDROOT
BRANCH   6  33
HETATM   33  C   UNK     0      12.174  11.198  10.619  0.00  0.00     0.051 C 
BRANCH  33  34
HETATM   34  C   UNK     0      12.907  11.401  11.924  0.00  0.00     0.114 C 
BRANCH  34  35
HETATM   35  C   UNK     0      12.146  12.415  12.710  0.00  0.00     0.139 C 
HETATM   36  O   UNK     0      11.738  12.141  13.876  0.00  0.00    -0.650 OA
BRANCH  35  37
HETATM   37  O   UNK     0      11.856  13.681  12.217  0.00  0.00    -0.776 OA
HETATM   38  H   UNK     0      10.910  14.013  12.120  0.00  0.00     0.167 HD
ENDBRANCH  35  37
ENDBRANCH  34  35
ENDBRANCH  33  34
ENDBRANCH   6  33
BRANCH  27  39
HETATM   39  C   UNK     0      13.782   7.934   2.718  0.00  0.00     0.051 C 
BRANCH  39  40
HETATM   40  C   UNK     0      14.449   7.871   1.418  0.00  0.00     0.114 C 
BRANCH  40  41
HETATM   41  C   UNK     0      13.813   8.326   0.202  0.00  0.00     0.139 C 
HETATM   42  O   UNK     0      12.588   8.462   0.081  0.00  0.00    -0.650 OA
BRANCH  41  43
HETATM   43  O   UNK     0      14.623   8.638  -0.927  0.00  0.00    -0.776 OA
HETATM   44  H   UNK     0      15.053   9.554  -0.893  0.00  0.00     0.167 HD
ENDBRANCH  41  43
ENDBRANCH  40  41
ENDBRANCH  39  40
ENDBRANCH  27  39
BRANCH  11  45
HETATM   45  C   UNK     0      11.698  17.545   5.657  0.00  0.00     0.051 C 
BRANCH  45  46
HETATM   46  C   UNK     0      10.331  18.123   5.695  0.00  0.00     0.114 C 
BRANCH  46  47
HETATM   47  C   UNK     0       9.838  18.183   4.289  0.00  0.00     0.139 C 
HETATM   48  O   UNK     0      10.511  18.800   3.452  0.00  0.00    -0.650 OA
BRANCH  47  49
HETATM   49  O   UNK     0       8.664  17.572   3.930  0.00  0.00    -0.776 OA
HETATM   50  H   UNK     0       7.792  17.713   4.454  0.00  0.00     0.167 HD
ENDBRANCH  47  49
ENDBRANCH  46  47
ENDBRANCH  45  46
ENDBRANCH  11  45
BRANCH  18  51
HETATM   51  C   UNK     0      14.105  13.592   0.428  0.00  0.00     0.051 C 
BRANCH  51  52
HETATM   52  C   UNK     0      14.213  12.179  -0.128  0.00  0.00     0.114 C 
BRANCH  52  53
HETATM   53  C   UNK     0      14.617  12.177  -1.547  0.00  0.00     0.139 C 
HETATM   54  O   UNK     0      14.758  11.102  -2.151  0.00  0.00    -0.650 OA
BRANCH  53  55
HETATM   55  O   UNK     0      14.838  13.369  -2.193  0.00  0.00    -0.776 OA
HETATM   56  H   UNK     0      14.140  13.996  -2.517  0.00  0.00     0.167 HD
ENDBRANCH  53  55
ENDBRANCH  52  53
ENDBRANCH  51  52
ENDBRANCH  18  51
TORSDOF 16
ENDMDL
MODEL 8
REMARK VINA RESULT:      -9.2     27.907     30.896
REMARK  16 active torsions:
REMARK  status: ('A' for Active; 'I' for Inactive)
REMARK    1  A    between atoms: C_6  and  C_7 
REMARK    2  A    between atoms: C_7  and  C_8 
REMARK    3  A    between atoms: C_8  and  C_9 
REMARK    4  A    between atoms: C_9  and  O_11 
REMARK    5  A    between atoms: C_16  and  C_17 
REMARK    6  A    between atoms: C_17  and  C_18 
REMARK    7  A    between atoms: C_18  and  C_19 
REMARK    8  A    between atoms: C_19  and  O_21 
REMARK    9  A    between atoms: C_28  and  C_29 
REMARK   10  A    between atoms: C_29  and  C_30 
REMARK   11  A    between atoms: C_30  and  C_31 
REMARK   12  A    between atoms: C_31  and  O_33 
REMARK   13  A    between atoms: C_42  and  C_43 
REMARK   14  A    between atoms: C_43  and  C_44 
REMARK   15  A    between atoms: C_44  and  C_45 
REMARK   16  A    between atoms: C_45  and  O_47 
ROOT
HETATM    1  C   UNK     0      13.469   6.337   4.013  0.00  0.00     0.051 C 
HETATM    2  C   UNK     0      13.768   7.195   5.226  0.00  0.00    -0.031 A 
HETATM    3  C   UNK     0      14.409   8.422   5.299  0.00  0.00     0.021 A 
HETATM    4  N   UNK     0      14.482   8.804   6.596  0.00  0.00    -0.361 N 
HETATM    5  C   UNK     0      13.894   7.853   7.350  0.00  0.00     0.022 A 
HETATM    6  C   UNK     0      13.439   6.830   6.525  0.00  0.00    -0.027 A 
HETATM    7  C   UNK     0      13.628   7.834   8.823  0.00  0.00     0.115 C 
HETATM    8  C   UNK     0      13.120   9.125   9.440  0.00  0.00     0.021 A 
HETATM    9  N   UNK     0      12.292  10.037   8.908  0.00  0.00    -0.361 N 
HETATM   10  C   UNK     0      12.189  11.067   9.774  0.00  0.00     0.022 A 
HETATM   11  C   UNK     0      12.965  10.807  10.900  0.00  0.00    -0.027 A 
HETATM   12  C   UNK     0      13.554   9.585  10.696  0.00  0.00    -0.031 A 
HETATM   13  C   UNK     0      14.486   8.891  11.664  0.00  0.00     0.051 C 
HETATM   14  C   UNK     0      11.401  12.355   9.554  0.00  0.00     0.115 C 
HETATM   15  C   UNK     0      11.869  13.166   8.357  0.00  0.00     0.021 A 
HETATM   16  N   UNK     0      11.927  12.773   7.071  0.00  0.00    -0.361 N 
HETATM   17  C   UNK     0      12.461  13.752   6.337  0.00  0.00     0.022 A 
HETATM   18  C   UNK     0      12.757  14.839   7.184  0.00  0.00    -0.027 A 
HETATM   19  C   UNK     0      12.380  14.460   8.446  0.00  0.00    -0.031 A 
HETATM   20  C   UNK     0      12.492  15.356   9.666  0.00  0.00     0.051 C 
HETATM   21  C   UNK     0      12.806  13.786   4.865  0.00  0.00     0.115 C 
HETATM   22  C   UNK     0      13.271  12.498   4.228  0.00  0.00     0.022 A 
HETATM   23  N   UNK     0      14.092  11.569   4.736  0.00  0.00    -0.361 N 
HETATM   24  C   UNK     0      14.118  10.519   3.891  0.00  0.00     0.021 A 
HETATM   25  C   UNK     0      13.302  10.782   2.808  0.00  0.00    -0.031 A 
HETATM   26  C   UNK     0      13.039   9.929   1.584  0.00  0.00     0.051 C 
HETATM   27  C   UNK     0      12.749  12.042   3.000  0.00  0.00    -0.027 A 
HETATM   28  C   UNK     0      14.832   9.192   4.080  0.00  0.00     0.115 C 
HETATM   29  H   UNK     0      14.984   9.726   6.974  0.00  0.00     0.165 HD
HETATM   30  H   UNK     0      11.738   9.934   7.942  0.00  0.00     0.165 HD
HETATM   31  H   UNK     0      11.540  11.803   6.663  0.00  0.00     0.165 HD
HETATM   32  H   UNK     0      14.696  11.665   5.676  0.00  0.00     0.165 HD
ENDROOT
BRANCH   6  33
HETATM   33  C   UNK     0      12.726   5.547   6.872  0.00  0.00     0.051 C 
BRANCH  33  34
HETATM   34  C   UNK     0      13.655   4.596   7.590  0.00  0.00     0.114 C 
BRANCH  34  35
HETATM   35  C   UNK     0      14.158   3.618   6.583  0.00  0.00     0.139 C 
HETATM   36  O   UNK     0      13.568   2.510   6.422  0.00  0.00    -0.650 OA
BRANCH  35  37
HETATM   37  O   UNK     0      15.269   3.867   5.786  0.00  0.00    -0.776 OA
HETATM   38  H   UNK     0      16.200   3.613   6.074  0.00  0.00     0.167 HD
ENDBRANCH  35  37
ENDBRANCH  34  35
ENDBRANCH  33  34
ENDBRANCH   6  33
BRANCH  27  39
HETATM   39  C   UNK     0      11.866  12.702   2.000  0.00  0.00     0.051 C 
BRANCH  39  40
HETATM   40  C   UNK     0      12.411  13.810   1.217  0.00  0.00     0.114 C 
BRANCH  40  41
HETATM   41  C   UNK     0      12.039  15.185   1.465  0.00  0.00     0.139 C 
HETATM   42  O   UNK     0      11.158  15.520   2.268  0.00  0.00    -0.650 OA
BRANCH  41  43
HETATM   43  O   UNK     0      12.711  16.221   0.756  0.00  0.00    -0.776 OA
HETATM   44  H   UNK     0      12.144  16.686   0.057  0.00  0.00     0.167 HD
ENDBRANCH  41  43
ENDBRANCH  40  41
ENDBRANCH  39  40
ENDBRANCH  27  39
BRANCH  11  45
HETATM   45  C   UNK     0      13.157  11.655  12.128  0.00  0.00     0.051 C 
BRANCH  45  46
HETATM   46  C   UNK     0      14.065  12.813  11.929  0.00  0.00     0.114 C 
BRANCH  46  47
HETATM   47  C   UNK     0      15.304  12.543  12.714  0.00  0.00     0.139 C 
HETATM   48  O   UNK     0      15.232  11.785  13.692  0.00  0.00    -0.650 OA
BRANCH  47  49
HETATM   49  O   UNK     0      16.498  13.120  12.363  0.00  0.00    -0.776 OA
HETATM   50  H   UNK     0      17.289  12.567  12.013  0.00  0.00     0.167 HD
ENDBRANCH  47  49
ENDBRANCH  46  47
ENDBRANCH  45  46
ENDBRANCH  11  45
BRANCH  18  51
HETATM   51  C   UNK     0      13.346  16.173   6.808  0.00  0.00     0.051 C 
BRANCH  51  52
HETATM   52  C   UNK     0      12.200  17.174   6.856  0.00  0.00     0.114 C 
BRANCH  52  53
HETATM   53  C   UNK     0      11.324  17.064   5.674  0.00  0.00     0.139 C 
HETATM   54  O   UNK     0      10.146  16.697   5.806  0.00  0.00    -0.650 OA
BRANCH  53  55
HETATM   55  O   UNK     0      11.821  17.366   4.429  0.00  0.00    -0.776 OA
HETATM   56  H   UNK     0      12.409  16.786   3.878  0.00  0.00     0.167 HD
ENDBRANCH  53  55
ENDBRANCH  52  53
ENDBRANCH  51  52
ENDBRANCH  18  51
TORSDOF 16
ENDMDL
MODEL 9
REMARK VINA RESULT:      -9.2     27.722     30.555
REMARK  16 active torsions:
REMARK  status: ('A' for Active; 'I' for Inactive)
REMARK    1  A    between atoms: C_6  and  C_7 
REMARK    2  A    between atoms: C_7  and  C_8 
REMARK    3  A    between atoms: C_8  and  C_9 
REMARK    4  A    between atoms: C_9  and  O_11 
REMARK    5  A    between atoms: C_16  and  C_17 
REMARK    6  A    between atoms: C_17  and  C_18 
REMARK    7  A    between atoms: C_18  and  C_19 
REMARK    8  A    between atoms: C_19  and  O_21 
REMARK    9  A    between atoms: C_28  and  C_29 
REMARK   10  A    between atoms: C_29  and  C_30 
REMARK   11  A    between atoms: C_30  and  C_31 
REMARK   12  A    between atoms: C_31  and  O_33 
REMARK   13  A    between atoms: C_42  and  C_43 
REMARK   14  A    between atoms: C_43  and  C_44 
REMARK   15  A    between atoms: C_44  and  C_45 
REMARK   16  A    between atoms: C_45  and  O_47 
ROOT
HETATM    1  C   UNK     0      13.340   8.929  12.282  0.00  0.00     0.051 C 
HETATM    2  C   UNK     0      13.133   8.695  10.800  0.00  0.00    -0.031 A 
HETATM    3  C   UNK     0      12.204   9.260   9.941  0.00  0.00     0.021 A 
HETATM    4  N   UNK     0      12.366   8.731   8.705  0.00  0.00    -0.361 N 
HETATM    5  C   UNK     0      13.384   7.847   8.756  0.00  0.00     0.022 A 
HETATM    6  C   UNK     0      13.885   7.798  10.052  0.00  0.00    -0.027 A 
HETATM    7  C   UNK     0      14.022   7.065   7.650  0.00  0.00     0.115 C 
HETATM    8  C   UNK     0      14.273   7.806   6.348  0.00  0.00     0.021 A 
HETATM    9  N   UNK     0      14.627   9.088   6.171  0.00  0.00    -0.361 N 
HETATM   10  C   UNK     0      14.648   9.338   4.844  0.00  0.00     0.022 A 
HETATM   11  C   UNK     0      14.308   8.182   4.148  0.00  0.00    -0.027 A 
HETATM   12  C   UNK     0      14.071   7.213   5.089  0.00  0.00    -0.031 A 
HETATM   13  C   UNK     0      13.673   5.784   4.793  0.00  0.00     0.051 C 
HETATM   14  C   UNK     0      14.936  10.683   4.184  0.00  0.00     0.115 C 
HETATM   15  C   UNK     0      13.952  11.778   4.564  0.00  0.00     0.021 A 
HETATM   16  N   UNK     0      13.675  12.242   5.797  0.00  0.00    -0.361 N 
HETATM   17  C   UNK     0      12.704  13.154   5.714  0.00  0.00     0.022 A 
HETATM   18  C   UNK     0      12.337  13.298   4.361  0.00  0.00    -0.027 A 
HETATM   19  C   UNK     0      13.127  12.432   3.651  0.00  0.00    -0.031 A 
HETATM   20  C   UNK     0      13.082  12.294   2.140  0.00  0.00     0.051 C 
HETATM   21  C   UNK     0      11.989  13.915   6.807  0.00  0.00     0.115 C 
HETATM   22  C   UNK     0      11.772  13.205   8.123  0.00  0.00     0.022 A 
HETATM   23  N   UNK     0      11.423  11.929   8.330  0.00  0.00    -0.361 N 
HETATM   24  C   UNK     0      11.485  11.682   9.654  0.00  0.00     0.021 A 
HETATM   25  C   UNK     0      11.872  12.831  10.317  0.00  0.00    -0.031 A 
HETATM   26  C   UNK     0      12.042  13.062  11.804  0.00  0.00     0.051 C 
HETATM   27  C   UNK     0      12.061  13.819   9.358  0.00  0.00    -0.027 A 
HETATM   28  C   UNK     0      11.268  10.357  10.364  0.00  0.00     0.115 C 
HETATM   29  H   UNK     0      11.735   8.956   7.814  0.00  0.00     0.165 HD
HETATM   30  H   UNK     0      14.911   9.807   6.978  0.00  0.00     0.165 HD
HETATM   31  H   UNK     0      14.208  11.956   6.740  0.00  0.00     0.165 HD
HETATM   32  H   UNK     0      11.089  11.200   7.546  0.00  0.00     0.165 HD
ENDROOT
BRANCH   6  33
HETATM   33  C   UNK     0      15.008   6.972  10.628  0.00  0.00     0.051 C 
BRANCH  33  34
HETATM   34  C   UNK     0      14.476   5.697  11.238  0.00  0.00     0.114 C 
BRANCH  34  35
HETATM   35  C   UNK     0      14.792   4.585  10.295  0.00  0.00     0.139 C 
HETATM   36  O   UNK     0      13.891   4.110   9.545  0.00  0.00    -0.650 OA
BRANCH  35  37
HETATM   37  O   UNK     0      16.061   4.029  10.193  0.00  0.00    -0.776 OA
HETATM   38  H   UNK     0      16.869   4.579   9.949  0.00  0.00     0.167 HD
ENDBRANCH  35  37
ENDBRANCH  34  35
ENDBRANCH  33  34
ENDBRANCH   6  33
BRANCH  27  39
HETATM   39  C   UNK     0      12.416  15.224   9.701  0.00  0.00     0.051 C 
BRANCH  39  40
HETATM   40  C   UNK     0      13.814  15.636   9.578  0.00  0.00     0.114 C 
BRANCH  40  41
HETATM   41  C   UNK     0      14.553  16.195  10.687  0.00  0.00     0.139 C 
HETATM   42  O   UNK     0      15.181  17.260  10.622  0.00  0.00    -0.650 OA
BRANCH  41  43
HETATM   43  O   UNK     0      14.571  15.496  11.927  0.00  0.00    -0.776 OA
HETATM   44  H   UNK     0      14.838  16.062  12.724  0.00  0.00     0.167 HD
ENDBRANCH  41  43
ENDBRANCH  40  41
ENDBRANCH  39  40
ENDBRANCH  27  39
BRANCH  11  45
HETATM   45  C   UNK     0      14.206   7.973   2.661  0.00  0.00     0.051 C 
BRANCH  45  46
HETATM   46  C   UNK     0      13.118   8.750   2.013  0.00  0.00     0.114 C 
BRANCH  46  47
HETATM   47  C   UNK     0      13.238   8.534   0.542  0.00  0.00     0.139 C 
HETATM   48  O   UNK     0      14.249   8.953  -0.037  0.00  0.00    -0.650 OA
BRANCH  47  49
HETATM   49  O   UNK     0      12.249   7.888  -0.156  0.00  0.00    -0.776 OA
HETATM   50  H   UNK     0      12.451   7.321  -0.988  0.00  0.00     0.167 HD
ENDBRANCH  47  49
ENDBRANCH  46  47
ENDBRANCH  45  46
ENDBRANCH  11  45
BRANCH  18  51
HETATM   51  C   UNK     0      11.305  14.227   3.775  0.00  0.00     0.051 C 
BRANCH  51  52
HETATM   52  C   UNK     0      12.071  15.412   3.207  0.00  0.00     0.114 C 
BRANCH  52  53
HETATM   53  C   UNK     0      11.677  15.707   1.816  0.00  0.00     0.139 C 
HETATM   54  O   UNK     0      10.554  15.374   1.405  0.00  0.00    -0.650 OA
BRANCH  53  55
HETATM   55  O   UNK     0      12.560  16.347   0.981  0.00  0.00    -0.776 OA
HETATM   56  H   UNK     0      12.429  16.517   0.012  0.00  0.00     0.167 HD
ENDBRANCH  53  55
ENDBRANCH  52  53
ENDBRANCH  51  52
ENDBRANCH  18  51
TORSDOF 16
ENDMDL
MODEL 10
REMARK VINA RESULT:      -9.2      4.154      9.215
REMARK  16 active torsions:
REMARK  status: ('A' for Active; 'I' for Inactive)
REMARK    1  A    between atoms: C_6  and  C_7 
REMARK    2  A    between atoms: C_7  and  C_8 
REMARK    3  A    between atoms: C_8  and  C_9 
REMARK    4  A    between atoms: C_9  and  O_11 
REMARK    5  A    between atoms: C_16  and  C_17 
REMARK    6  A    between atoms: C_17  and  C_18 
REMARK    7  A    between atoms: C_18  and  C_19 
REMARK    8  A    between atoms: C_19  and  O_21 
REMARK    9  A    between atoms: C_28  and  C_29 
REMARK   10  A    between atoms: C_29  and  C_30 
REMARK   11  A    between atoms: C_30  and  C_31 
REMARK   12  A    between atoms: C_31  and  O_33 
REMARK   13  A    between atoms: C_42  and  C_43 
REMARK   14  A    between atoms: C_43  and  C_44 
REMARK   15  A    between atoms: C_44  and  C_45 
REMARK   16  A    between atoms: C_45  and  O_47 
ROOT
HETATM    1  C   UNK     0      -7.967  -9.946  18.655  0.00  0.00     0.051 C 
HETATM    2  C   UNK     0      -6.511 -10.329  18.821  0.00  0.00    -0.031 A 
HETATM    3  C   UNK     0      -5.379  -9.531  18.760  0.00  0.00     0.021 A 
HETATM    4  N   UNK     0      -4.283 -10.306  18.937  0.00  0.00    -0.361 N 
HETATM    5  C   UNK     0      -4.691 -11.579  19.117  0.00  0.00     0.022 A 
HETATM    6  C   UNK     0      -6.080 -11.629  19.047  0.00  0.00    -0.027 A 
HETATM    7  C   UNK     0      -3.888 -12.799  19.443  0.00  0.00     0.115 C 
HETATM    8  C   UNK     0      -2.795 -12.638  20.484  0.00  0.00     0.021 A 
HETATM    9  N   UNK     0      -2.794 -11.868  21.583  0.00  0.00    -0.361 N 
HETATM   10  C   UNK     0      -1.579 -11.967  22.163  0.00  0.00     0.022 A 
HETATM   11  C   UNK     0      -0.779 -12.831  21.422  0.00  0.00    -0.027 A 
HETATM   12  C   UNK     0      -1.538 -13.257  20.363  0.00  0.00    -0.031 A 
HETATM   13  C   UNK     0      -1.080 -14.219  19.289  0.00  0.00     0.051 C 
HETATM   14  C   UNK     0      -1.109 -11.213  23.404  0.00  0.00     0.115 C 
HETATM   15  C   UNK     0      -1.117  -9.701  23.245  0.00  0.00     0.021 A 
HETATM   16  N   UNK     0      -2.166  -8.912  22.946  0.00  0.00    -0.361 N 
HETATM   17  C   UNK     0      -1.746  -7.650  22.828  0.00  0.00     0.022 A 
HETATM   18  C   UNK     0      -0.358  -7.614  23.070  0.00  0.00    -0.027 A 
HETATM   19  C   UNK     0       0.023  -8.904  23.332  0.00  0.00    -0.031 A 
HETATM   20  C   UNK     0       1.443  -9.310  23.683  0.00  0.00     0.051 C 
HETATM   21  C   UNK     0      -2.508  -6.405  22.437  0.00  0.00     0.115 C 
HETATM   22  C   UNK     0      -3.628  -6.558  21.435  0.00  0.00     0.022 A 
HETATM   23  N   UNK     0      -3.658  -7.320  20.334  0.00  0.00    -0.361 N 
HETATM   24  C   UNK     0      -4.902  -7.267  19.816  0.00  0.00     0.021 A 
HETATM   25  C   UNK     0      -5.689  -6.443  20.597  0.00  0.00    -0.031 A 
HETATM   26  C   UNK     0      -7.136  -6.041  20.400  0.00  0.00     0.051 C 
HETATM   27  C   UNK     0      -4.896  -5.977  21.639  0.00  0.00    -0.027 A 
HETATM   28  C   UNK     0      -5.445  -8.036  18.624  0.00  0.00     0.115 C 
HETATM   29  H   UNK     0      -3.226  -9.954  18.893  0.00  0.00     0.165 HD
HETATM   30  H   UNK     0      -3.666 -11.293  21.980  0.00  0.00     0.165 HD
HETATM   31  H   UNK     0      -3.233  -9.244  22.864  0.00  0.00     0.165 HD
HETATM   32  H   UNK     0      -2.788  -7.869  19.887  0.00  0.00     0.165 HD
ENDROOT
BRANCH   6  33
HETATM   33  C   UNK     0      -7.015 -12.805  19.176  0.00  0.00     0.051 C 
BRANCH  33  34
HETATM   34  C   UNK     0      -7.104 -13.263  20.612  0.00  0.00     0.114 C 
BRANCH  34  35
HETATM   35  C   UNK     0      -8.172 -12.459  21.272  0.00  0.00     0.139 C 
HETATM   36  O   UNK     0      -7.894 -11.719  22.260  0.00  0.00    -0.650 OA
BRANCH  35  37
HETATM   37  O   UNK     0      -9.495 -12.477  20.846  0.00  0.00    -0.776 OA
HETATM   38  H   UNK     0     -10.259 -12.643  21.481  0.00  0.00     0.167 HD
ENDBRANCH  35  37
ENDBRANCH  34  35
ENDBRANCH  33  34
ENDBRANCH   6  33
BRANCH  27  39
HETATM   39  C   UNK     0      -5.381  -5.001  22.652  0.00  0.00     0.051 C 
BRANCH  39  40
HETATM   40  C   UNK     0      -5.166  -3.576  22.402  0.00  0.00     0.114 C 
BRANCH  40  41
HETATM   41  C   UNK     0      -6.205  -2.720  21.875  0.00  0.00     0.139 C 
HETATM   42  O   UNK     0      -7.414  -2.938  22.031  0.00  0.00    -0.650 OA
BRANCH  41  43
HETATM   43  O   UNK     0      -5.837  -1.561  21.135  0.00  0.00    -0.776 OA
HETATM   44  H   UNK     0      -5.198  -1.738  20.369  0.00  0.00     0.167 HD
ENDBRANCH  41  43
ENDBRANCH  40  41
ENDBRANCH  39  40
ENDBRANCH  27  39
BRANCH  11  45
HETATM   45  C   UNK     0       0.642 -13.254  21.683  0.00  0.00     0.051 C 
BRANCH  45  46
HETATM   46  C   UNK     0       1.647 -12.190  21.433  0.00  0.00     0.114 C 
BRANCH  46  47
HETATM   47  C   UNK     0       2.830 -12.839  20.798  0.00  0.00     0.139 C 
HETATM   48  O   UNK     0       2.770 -13.132  19.596  0.00  0.00    -0.650 OA
BRANCH  47  49
HETATM   49  O   UNK     0       3.960 -13.109  21.528  0.00  0.00    -0.776 OA
HETATM   50  H   UNK     0       4.726 -12.431  21.617  0.00  0.00     0.167 HD
ENDBRANCH  47  49
ENDBRANCH  46  47
ENDBRANCH  45  46
ENDBRANCH  11  45
BRANCH  18  51
HETATM   51  C   UNK     0       0.551  -6.412  23.074  0.00  0.00     0.051 C 
BRANCH  51  52
HETATM   52  C   UNK     0       1.088  -6.280  21.657  0.00  0.00     0.114 C 
BRANCH  52  53
HETATM   53  C   UNK     0       0.923  -4.911  21.131  0.00  0.00     0.139 C 
HETATM   54  O   UNK     0      -0.189  -4.527  20.736  0.00  0.00    -0.650 OA
BRANCH  53  55
HETATM   55  O   UNK     0       2.006  -4.068  21.079  0.00  0.00    -0.776 OA
HETATM   56  H   UNK     0       2.812  -4.187  20.512  0.00  0.00     0.167 HD
ENDBRANCH  53  55
ENDBRANCH  52  53
ENDBRANCH  51  52
ENDBRANCH  18  51
TORSDOF 16
ENDMDL
MODEL 11
REMARK VINA RESULT:      -9.2     27.460     30.268
REMARK  16 active torsions:
REMARK  status: ('A' for Active; 'I' for Inactive)
REMARK    1  A    between atoms: C_6  and  C_7 
REMARK    2  A    between atoms: C_7  and  C_8 
REMARK    3  A    between atoms: C_8  and  C_9 
REMARK    4  A    between atoms: C_9  and  O_11 
REMARK    5  A    between atoms: C_16  and  C_17 
REMARK    6  A    between atoms: C_17  and  C_18 
REMARK    7  A    between atoms: C_18  and  C_19 
REMARK    8  A    between atoms: C_19  and  O_21 
REMARK    9  A    between atoms: C_28  and  C_29 
REMARK   10  A    between atoms: C_29  and  C_30 
REMARK   11  A    between atoms: C_30  and  C_31 
REMARK   12  A    between atoms: C_31  and  O_33 
REMARK   13  A    between atoms: C_42  and  C_43 
REMARK   14  A    between atoms: C_43  and  C_44 
REMARK   15  A    between atoms: C_44  and  C_45 
REMARK   16  A    between atoms: C_45  and  O_47 
ROOT
HETATM    1  C   UNK     0      13.207   7.992  12.200  0.00  0.00     0.051 C 
HETATM    2  C   UNK     0      13.044   7.953  10.695  0.00  0.00    -0.031 A 
HETATM    3  C   UNK     0      12.130   8.616   9.891  0.00  0.00     0.021 A 
HETATM    4  N   UNK     0      12.334   8.257   8.601  0.00  0.00    -0.361 N 
HETATM    5  C   UNK     0      13.364   7.386   8.565  0.00  0.00     0.022 A 
HETATM    6  C   UNK     0      13.830   7.171   9.857  0.00  0.00    -0.027 A 
HETATM    7  C   UNK     0      14.043   6.764   7.385  0.00  0.00     0.115 C 
HETATM    8  C   UNK     0      14.318   7.673   6.200  0.00  0.00     0.021 A 
HETATM    9  N   UNK     0      14.657   8.971   6.203  0.00  0.00    -0.361 N 
HETATM   10  C   UNK     0      14.710   9.394   4.922  0.00  0.00     0.022 A 
HETATM   11  C   UNK     0      14.406   8.336   4.070  0.00  0.00    -0.027 A 
HETATM   12  C   UNK     0      14.158   7.249   4.868  0.00  0.00    -0.031 A 
HETATM   13  C   UNK     0      13.791   5.867   4.375  0.00  0.00     0.051 C 
HETATM   14  C   UNK     0      14.995  10.818   4.453  0.00  0.00     0.115 C 
HETATM   15  C   UNK     0      13.985  11.842   4.945  0.00  0.00     0.021 A 
HETATM   16  N   UNK     0      13.668  12.136   6.220  0.00  0.00    -0.361 N 
HETATM   17  C   UNK     0      12.686  13.040   6.230  0.00  0.00     0.022 A 
HETATM   18  C   UNK     0      12.354  13.357   4.898  0.00  0.00    -0.027 A 
HETATM   19  C   UNK     0      13.176  12.601   4.103  0.00  0.00    -0.031 A 
HETATM   20  C   UNK     0      13.174  12.664   2.586  0.00  0.00     0.051 C 
HETATM   21  C   UNK     0      11.930  13.642   7.393  0.00  0.00     0.115 C 
HETATM   22  C   UNK     0      11.688  12.762   8.597  0.00  0.00     0.022 A 
HETATM   23  N   UNK     0      11.354  11.465   8.624  0.00  0.00    -0.361 N 
HETATM   24  C   UNK     0      11.383  11.047   9.905  0.00  0.00     0.021 A 
HETATM   25  C   UNK     0      11.735  12.102  10.724  0.00  0.00    -0.031 A 
HETATM   26  C   UNK     0      11.861  12.136  12.233  0.00  0.00     0.051 C 
HETATM   27  C   UNK     0      11.935  13.211   9.910  0.00  0.00    -0.027 A 
HETATM   28  C   UNK     0      11.167   9.637  10.428  0.00  0.00     0.115 C 
HETATM   29  H   UNK     0      11.723   8.590   7.731  0.00  0.00     0.165 HD
HETATM   30  H   UNK     0      14.908   9.580   7.105  0.00  0.00     0.165 HD
HETATM   31  H   UNK     0      14.180  11.734   7.132  0.00  0.00     0.165 HD
HETATM   32  H   UNK     0      11.051  10.843   7.741  0.00  0.00     0.165 HD
ENDROOT
BRANCH   6  33
HETATM   33  C   UNK     0      14.949   6.290  10.351  0.00  0.00     0.051 C 
BRANCH  33  34
HETATM   34  C   UNK     0      14.465   4.873  10.553  0.00  0.00     0.114 C 
BRANCH  34  35
HETATM   35  C   UNK     0      15.468   3.965   9.925  0.00  0.00     0.139 C 
HETATM   36  O   UNK     0      15.736   4.067   8.693  0.00  0.00    -0.650 OA
BRANCH  35  37
HETATM   37  O   UNK     0      16.145   2.987  10.643  0.00  0.00    -0.776 OA
HETATM   38  H   UNK     0      15.891   2.013  10.590  0.00  0.00     0.167 HD
ENDBRANCH  35  37
ENDBRANCH  34  35
ENDBRANCH  33  34
ENDBRANCH   6  33
BRANCH  27  39
HETATM   39  C   UNK     0      12.259  14.561  10.445  0.00  0.00     0.051 C 
BRANCH  39  40
HETATM   40  C   UNK     0      13.479  15.219   9.977  0.00  0.00     0.114 C 
BRANCH  40  41
HETATM   41  C   UNK     0      13.469  16.551   9.416  0.00  0.00     0.139 C 
HETATM   42  O   UNK     0      14.329  17.406   9.670  0.00  0.00    -0.650 OA
BRANCH  41  43
HETATM   43  O   UNK     0      12.422  16.917   8.523  0.00  0.00    -0.776 OA
HETATM   44  H   UNK     0      11.605  17.309   8.974  0.00  0.00     0.167 HD
ENDBRANCH  41  43
ENDBRANCH  40  41
ENDBRANCH  39  40
ENDBRANCH  27  39
BRANCH  11  45
HETATM   45  C   UNK     0      14.348   8.325   2.566  0.00  0.00     0.051 C 
BRANCH  45  46
HETATM   46  C   UNK     0      13.171   9.032   1.999  0.00  0.00     0.114 C 
BRANCH  46  47
HETATM   47  C   UNK     0      13.034   8.595   0.580  0.00  0.00     0.139 C 
HETATM   48  O   UNK     0      13.996   8.756  -0.184  0.00  0.00    -0.650 OA
BRANCH  47  49
HETATM   49  O   UNK     0      11.869   8.028   0.129  0.00  0.00    -0.776 OA
HETATM   50  H   UNK     0      11.865   7.267  -0.560  0.00  0.00     0.167 HD
ENDBRANCH  47  49
ENDBRANCH  46  47
ENDBRANCH  45  46
ENDBRANCH  11  45
BRANCH  18  51
HETATM   51  C   UNK     0      11.324  14.343   4.409  0.00  0.00     0.051 C 
BRANCH  51  52
HETATM   52  C   UNK     0      12.048  15.672   4.252  0.00  0.00     0.114 C 
BRANCH  52  53
HETATM   53  C   UNK     0      11.297  16.783   4.870  0.00  0.00     0.139 C 
HETATM   54  O   UNK     0      11.221  17.879   4.291  0.00  0.00    -0.650 OA
BRANCH  53  55
HETATM   55  O   UNK     0      10.688  16.597   6.087  0.00  0.00    -0.776 OA
HETATM   56  H   UNK     0       9.821  16.139   6.242  0.00  0.00     0.167 HD
ENDBRANCH  53  55
ENDBRANCH  52  53
ENDBRANCH  51  52
ENDBRANCH  18  51
TORSDOF 16
ENDMDL
MODEL 12
REMARK VINA RESULT:      -9.1     27.872     30.587
REMARK  16 active torsions:
REMARK  status: ('A' for Active; 'I' for Inactive)
REMARK    1  A    between atoms: C_6  and  C_7 
REMARK    2  A    between atoms: C_7  and  C_8 
REMARK    3  A    between atoms: C_8  and  C_9 
REMARK    4  A    between atoms: C_9  and  O_11 
REMARK    5  A    between atoms: C_16  and  C_17 
REMARK    6  A    between atoms: C_17  and  C_18 
REMARK    7  A    between atoms: C_18  and  C_19 
REMARK    8  A    between atoms: C_19  and  O_21 
REMARK    9  A    between atoms: C_28  and  C_29 
REMARK   10  A    between atoms: C_29  and  C_30 
REMARK   11  A    between atoms: C_30  and  C_31 
REMARK   12  A    between atoms: C_31  and  O_33 
REMARK   13  A    between atoms: C_42  and  C_43 
REMARK   14  A    between atoms: C_43  and  C_44 
REMARK   15  A    between atoms: C_44  and  C_45 
REMARK   16  A    between atoms: C_45  and  O_47 
ROOT
HETATM    1  C   UNK     0      12.956  13.744   3.781  0.00  0.00     0.051 C 
HETATM    2  C   UNK     0      13.792  12.480   3.762  0.00  0.00    -0.031 A 
HETATM    3  C   UNK     0      14.504  11.881   4.790  0.00  0.00     0.021 A 
HETATM    4  N   UNK     0      15.131  10.781   4.309  0.00  0.00    -0.361 N 
HETATM    5  C   UNK     0      14.827  10.662   3.000  0.00  0.00     0.022 A 
HETATM    6  C   UNK     0      13.994  11.710   2.625  0.00  0.00    -0.027 A 
HETATM    7  C   UNK     0      15.186   9.575   2.035  0.00  0.00     0.115 C 
HETATM    8  C   UNK     0      15.080   8.149   2.545  0.00  0.00     0.021 A 
HETATM    9  N   UNK     0      14.184   7.630   3.398  0.00  0.00    -0.361 N 
HETATM   10  C   UNK     0      14.528   6.347   3.639  0.00  0.00     0.022 A 
HETATM   11  C   UNK     0      15.672   6.028   2.914  0.00  0.00    -0.027 A 
HETATM   12  C   UNK     0      16.025   7.158   2.223  0.00  0.00    -0.031 A 
HETATM   13  C   UNK     0      17.212   7.279   1.292  0.00  0.00     0.051 C 
HETATM   14  C   UNK     0      13.826   5.391   4.599  0.00  0.00     0.115 C 
HETATM   15  C   UNK     0      13.828   5.858   6.046  0.00  0.00     0.021 A 
HETATM   16  N   UNK     0      13.324   7.005   6.539  0.00  0.00    -0.361 N 
HETATM   17  C   UNK     0      13.588   7.074   7.846  0.00  0.00     0.022 A 
HETATM   18  C   UNK     0      14.291   5.913   8.224  0.00  0.00    -0.027 A 
HETATM   19  C   UNK     0      14.433   5.159   7.088  0.00  0.00    -0.031 A 
HETATM   20  C   UNK     0      15.106   3.799   7.056  0.00  0.00     0.051 C 
HETATM   21  C   UNK     0      13.304   8.179   8.838  0.00  0.00     0.115 C 
HETATM   22  C   UNK     0      13.362   9.602   8.333  0.00  0.00     0.022 A 
HETATM   23  N   UNK     0      14.241  10.145   7.480  0.00  0.00    -0.361 N 
HETATM   24  C   UNK     0      13.834  11.398   7.195  0.00  0.00     0.021 A 
HETATM   25  C   UNK     0      12.671  11.672   7.888  0.00  0.00    -0.031 A 
HETATM   26  C   UNK     0      11.862  12.953   7.924  0.00  0.00     0.051 C 
HETATM   27  C   UNK     0      12.349  10.538   8.624  0.00  0.00    -0.027 A 
HETATM   28  C   UNK     0      14.453  12.374   6.208  0.00  0.00     0.115 C 
HETATM   29  H   UNK     0      15.816  10.120   4.888  0.00  0.00     0.165 HD
HETATM   30  H   UNK     0      13.278   8.152   3.794  0.00  0.00     0.165 HD
HETATM   31  H   UNK     0      12.726   7.759   5.964  0.00  0.00     0.165 HD
HETATM   32  H   UNK     0      15.181   9.663   7.106  0.00  0.00     0.165 HD
ENDROOT
BRANCH   6  33
HETATM   33  C   UNK     0      13.384  12.032   1.284  0.00  0.00     0.051 C 
BRANCH  33  34
HETATM   34  C   UNK     0      14.239  13.023   0.531  0.00  0.00     0.114 C 
BRANCH  34  35
HETATM   35  C   UNK     0      14.560  12.421  -0.795  0.00  0.00     0.139 C 
HETATM   36  O   UNK     0      14.653  11.165  -0.918  0.00  0.00    -0.650 OA
BRANCH  35  37
HETATM   37  O   UNK     0      14.766  13.187  -1.936  0.00  0.00    -0.776 OA
HETATM   38  H   UNK     0      14.679  14.190  -1.929  0.00  0.00     0.167 HD
ENDBRANCH  35  37
ENDBRANCH  34  35
ENDBRANCH  33  34
ENDBRANCH   6  33
BRANCH  27  39
HETATM   39  C   UNK     0      11.191  10.478   9.556  0.00  0.00     0.051 C 
BRANCH  39  40
HETATM   40  C   UNK     0      10.083   9.580   9.231  0.00  0.00     0.114 C 
BRANCH  40  41
HETATM   41  C   UNK     0      10.096   8.180   9.589  0.00  0.00     0.139 C 
HETATM   42  O   UNK     0      10.228   7.772  10.751  0.00  0.00    -0.650 OA
BRANCH  41  43
HETATM   43  O   UNK     0       9.951   7.203   8.563  0.00  0.00    -0.776 OA
HETATM   44  H   UNK     0      10.745   6.583   8.459  0.00  0.00     0.167 HD
ENDBRANCH  41  43
ENDBRANCH  40  41
ENDBRANCH  39  40
ENDBRANCH  27  39
BRANCH  11  45
HETATM   45  C   UNK     0      16.417   4.721   2.857  0.00  0.00     0.051 C 
BRANCH  45  46
HETATM   46  C   UNK     0      16.571   4.171   1.486  0.00  0.00     0.114 C 
BRANCH  46  47
HETATM   47  C   UNK     0      15.201   3.934   0.948  0.00  0.00     0.139 C 
HETATM   48  O   UNK     0      14.455   3.150   1.552  0.00  0.00    -0.650 OA
BRANCH  47  49
HETATM   49  O   UNK     0      14.773   4.568  -0.190  0.00  0.00    -0.776 OA
HETATM   50  H   UNK     0      15.361   5.246  -0.691  0.00  0.00     0.167 HD
ENDBRANCH  47  49
ENDBRANCH  46  47
ENDBRANCH  45  46
ENDBRANCH  11  45
BRANCH  18  51
HETATM   51  C   UNK     0      14.781   5.532   9.597  0.00  0.00     0.051 C 
BRANCH  51  52
HETATM   52  C   UNK     0      13.805   4.490  10.124  0.00  0.00     0.114 C 
BRANCH  52  53
HETATM   53  C   UNK     0      12.505   5.088  10.485  0.00  0.00     0.139 C 
HETATM   54  O   UNK     0      11.487   4.798   9.838  0.00  0.00    -0.650 OA
BRANCH  53  55
HETATM   55  O   UNK     0      12.431   5.966  11.539  0.00  0.00    -0.776 OA
HETATM   56  H   UNK     0      12.898   5.875  12.410  0.00  0.00     0.167 HD
ENDBRANCH  53  55
ENDBRANCH  52  53
ENDBRANCH  51  52
ENDBRANCH  18  51
TORSDOF 16
ENDMDL
MODEL 13
REMARK VINA RESULT:      -9.1     27.794     30.756
REMARK  16 active torsions:
REMARK  status: ('A' for Active; 'I' for Inactive)
REMARK    1  A    between atoms: C_6  and  C_7 
REMARK    2  A    between atoms: C_7  and  C_8 
REMARK    3  A    between atoms: C_8  and  C_9 
REMARK    4  A    between atoms: C_9  and  O_11 
REMARK    5  A    between atoms: C_16  and  C_17 
REMARK    6  A    between atoms: C_17  and  C_18 
REMARK    7  A    between atoms: C_18  and  C_19 
REMARK    8  A    between atoms: C_19  and  O_21 
REMARK    9  A    between atoms: C_28  and  C_29 
REMARK   10  A    between atoms: C_29  and  C_30 
REMARK   11  A    between atoms: C_30  and  C_31 
REMARK   12  A    between atoms: C_31  and  O_33 
REMARK   13  A    between atoms: C_42  and  C_43 
REMARK   14  A    between atoms: C_43  and  C_44 
REMARK   15  A    between atoms: C_44  and  C_45 
REMARK   16  A    between atoms: C_45  and  O_47 
ROOT
HETATM    1  C   UNK     0      13.487   6.317   4.034  0.00  0.00     0.051 C 
HETATM    2  C   UNK     0      13.768   7.172   5.253  0.00  0.00    -0.031 A 
HETATM    3  C   UNK     0      14.414   8.395   5.340  0.00  0.00     0.021 A 
HETATM    4  N   UNK     0      14.465   8.776   6.639  0.00  0.00    -0.361 N 
HETATM    5  C   UNK     0      13.859   7.826   7.380  0.00  0.00     0.022 A 
HETATM    6  C   UNK     0      13.413   6.807   6.545  0.00  0.00    -0.027 A 
HETATM    7  C   UNK     0      13.566   7.807   8.848  0.00  0.00     0.115 C 
HETATM    8  C   UNK     0      13.054   9.100   9.458  0.00  0.00     0.021 A 
HETATM    9  N   UNK     0      12.240  10.017   8.912  0.00  0.00    -0.361 N 
HETATM   10  C   UNK     0      12.127  11.046   9.778  0.00  0.00     0.022 A 
HETATM   11  C   UNK     0      12.881  10.780  10.917  0.00  0.00    -0.027 A 
HETATM   12  C   UNK     0      13.467   9.556  10.722  0.00  0.00    -0.031 A 
HETATM   13  C   UNK     0      14.377   8.855  11.706  0.00  0.00     0.051 C 
HETATM   14  C   UNK     0      11.350  12.339   9.546  0.00  0.00     0.115 C 
HETATM   15  C   UNK     0      11.844  13.149   8.358  0.00  0.00     0.021 A 
HETATM   16  N   UNK     0      11.924  12.757   7.073  0.00  0.00    -0.361 N 
HETATM   17  C   UNK     0      12.476  13.734   6.350  0.00  0.00     0.022 A 
HETATM   18  C   UNK     0      12.761  14.818   7.204  0.00  0.00    -0.027 A 
HETATM   19  C   UNK     0      12.360  14.439   8.459  0.00  0.00    -0.031 A 
HETATM   20  C   UNK     0      12.455  15.334   9.681  0.00  0.00     0.051 C 
HETATM   21  C   UNK     0      12.848  13.768   4.885  0.00  0.00     0.115 C 
HETATM   22  C   UNK     0      13.317  12.479   4.254  0.00  0.00     0.022 A 
HETATM   23  N   UNK     0      14.124  11.545   4.776  0.00  0.00    -0.361 N 
HETATM   24  C   UNK     0      14.160  10.496   3.930  0.00  0.00     0.021 A 
HETATM   25  C   UNK     0      13.365  10.764   2.832  0.00  0.00    -0.031 A 
HETATM   26  C   UNK     0      13.119   9.914   1.603  0.00  0.00     0.051 C 
HETATM   27  C   UNK     0      12.815  12.028   3.017  0.00  0.00    -0.027 A 
HETATM   28  C   UNK     0      14.863   9.164   4.130  0.00  0.00     0.115 C 
HETATM   29  H   UNK     0      14.965   9.694   7.026  0.00  0.00     0.165 HD
HETATM   30  H   UNK     0      11.704   9.918   7.936  0.00  0.00     0.165 HD
HETATM   31  H   UNK     0      11.538  11.790   6.657  0.00  0.00     0.165 HD
HETATM   32  H   UNK     0      14.711  11.636   5.727  0.00  0.00     0.165 HD
ENDROOT
BRANCH   6  33
HETATM   33  C   UNK     0      12.688   5.527   6.878  0.00  0.00     0.051 C 
BRANCH  33  34
HETATM   34  C   UNK     0      11.247   5.807   7.234  0.00  0.00     0.114 C 
BRANCH  34  35
HETATM   35  C   UNK     0      10.399   5.213   6.160  0.00  0.00     0.139 C 
HETATM   36  O   UNK     0      10.866   4.313   5.404  0.00  0.00    -0.650 OA
BRANCH  35  37
HETATM   37  O   UNK     0       9.084   5.606   5.941  0.00  0.00    -0.776 OA
HETATM   38  H   UNK     0       8.718   5.754   5.015  0.00  0.00     0.167 HD
ENDBRANCH  35  37
ENDBRANCH  34  35
ENDBRANCH  33  34
ENDBRANCH   6  33
BRANCH  27  39
HETATM   39  C   UNK     0      11.954  12.693   2.002  0.00  0.00     0.051 C 
BRANCH  39  40
HETATM   40  C   UNK     0      12.545  13.739   1.168  0.00  0.00     0.114 C 
BRANCH  40  41
HETATM   41  C   UNK     0      12.222  15.138   1.342  0.00  0.00     0.139 C 
HETATM   42  O   UNK     0      11.423  15.554   2.193  0.00  0.00    -0.650 OA
BRANCH  41  43
HETATM   43  O   UNK     0      12.846  16.101   0.500  0.00  0.00    -0.776 OA
HETATM   44  H   UNK     0      12.227  16.832   0.169  0.00  0.00     0.167 HD
ENDBRANCH  41  43
ENDBRANCH  40  41
ENDBRANCH  39  40
ENDBRANCH  27  39
BRANCH  11  45
HETATM   45  C   UNK     0      13.055  11.626  12.150  0.00  0.00     0.051 C 
BRANCH  45  46
HETATM   46  C   UNK     0      13.815  12.882  11.921  0.00  0.00     0.114 C 
BRANCH  46  47
HETATM   47  C   UNK     0      15.264  12.542  12.003  0.00  0.00     0.139 C 
HETATM   48  O   UNK     0      15.815  12.560  13.112  0.00  0.00    -0.650 OA
BRANCH  47  49
HETATM   49  O   UNK     0      15.974  12.217  10.875  0.00  0.00    -0.776 OA
HETATM   50  H   UNK     0      15.893  11.298  10.425  0.00  0.00     0.167 HD
ENDBRANCH  47  49
ENDBRANCH  46  47
ENDBRANCH  45  46
ENDBRANCH  11  45
BRANCH  18  51
HETATM   51  C   UNK     0      13.364  16.150   6.840  0.00  0.00     0.051 C 
BRANCH  51  52
HETATM   52  C   UNK     0      12.234  17.166   6.920  0.00  0.00     0.114 C 
BRANCH  52  53
HETATM   53  C   UNK     0      11.353  17.102   5.737  0.00  0.00     0.139 C 
HETATM   54  O   UNK     0      10.148  16.840   5.874  0.00  0.00    -0.650 OA
BRANCH  53  55
HETATM   55  O   UNK     0      11.876  17.330   4.488  0.00  0.00    -0.776 OA
HETATM   56  H   UNK     0      12.073  18.219   4.091  0.00  0.00     0.167 HD
ENDBRANCH  53  55
ENDBRANCH  52  53
ENDBRANCH  51  52
ENDBRANCH  18  51
TORSDOF 16
ENDMDL
MODEL 14
REMARK VINA RESULT:      -9.1     29.243     32.788
REMARK  16 active torsions:
REMARK  status: ('A' for Active; 'I' for Inactive)
REMARK    1  A    between atoms: C_6  and  C_7 
REMARK    2  A    between atoms: C_7  and  C_8 
REMARK    3  A    between atoms: C_8  and  C_9 
REMARK    4  A    between atoms: C_9  and  O_11 
REMARK    5  A    between atoms: C_16  and  C_17 
REMARK    6  A    between atoms: C_17  and  C_18 
REMARK    7  A    between atoms: C_18  and  C_19 
REMARK    8  A    between atoms: C_19  and  O_21 
REMARK    9  A    between atoms: C_28  and  C_29 
REMARK   10  A    between atoms: C_29  and  C_30 
REMARK   11  A    between atoms: C_30  and  C_31 
REMARK   12  A    between atoms: C_31  and  O_33 
REMARK   13  A    between atoms: C_42  and  C_43 
REMARK   14  A    between atoms: C_43  and  C_44 
REMARK   15  A    between atoms: C_44  and  C_45 
REMARK   16  A    between atoms: C_45  and  O_47 
ROOT
HETATM    1  C   UNK     0      11.648  17.601   5.612  0.00  0.00     0.051 C 
HETATM    2  C   UNK     0      11.659  16.201   6.192  0.00  0.00    -0.031 A 
HETATM    3  C   UNK     0      11.229  15.011   5.626  0.00  0.00     0.021 A 
HETATM    4  N   UNK     0      11.402  14.010   6.521  0.00  0.00    -0.361 N 
HETATM    5  C   UNK     0      11.940  14.534   7.642  0.00  0.00     0.022 A 
HETATM    6  C   UNK     0      12.111  15.904   7.471  0.00  0.00    -0.027 A 
HETATM    7  C   UNK     0      12.408  13.846   8.886  0.00  0.00     0.115 C 
HETATM    8  C   UNK     0      13.189  12.557   8.698  0.00  0.00     0.021 A 
HETATM    9  N   UNK     0      14.062  12.242   7.729  0.00  0.00    -0.361 N 
HETATM   10  C   UNK     0      14.443  10.959   7.909  0.00  0.00     0.022 A 
HETATM   11  C   UNK     0      13.805  10.437   9.030  0.00  0.00    -0.027 A 
HETATM   12  C   UNK     0      13.014  11.439   9.533  0.00  0.00    -0.031 A 
HETATM   13  C   UNK     0      12.136  11.327  10.759  0.00  0.00     0.051 C 
HETATM   14  C   UNK     0      15.377  10.161   7.004  0.00  0.00     0.115 C 
HETATM   15  C   UNK     0      14.871  10.007   5.579  0.00  0.00     0.021 A 
HETATM   16  N   UNK     0      14.571  10.984   4.703  0.00  0.00    -0.361 N 
HETATM   17  C   UNK     0      14.093  10.438   3.583  0.00  0.00     0.022 A 
HETATM   18  C   UNK     0      14.090   9.037   3.732  0.00  0.00    -0.027 A 
HETATM   19  C   UNK     0      14.581   8.780   4.986  0.00  0.00    -0.031 A 
HETATM   20  C   UNK     0      14.782   7.382   5.543  0.00  0.00     0.051 C 
HETATM   21  C   UNK     0      13.550  11.097   2.335  0.00  0.00     0.115 C 
HETATM   22  C   UNK     0      12.808  12.403   2.502  0.00  0.00     0.022 A 
HETATM   23  N   UNK     0      11.937  12.746   3.460  0.00  0.00    -0.361 N 
HETATM   24  C   UNK     0      11.631  14.050   3.307  0.00  0.00     0.021 A 
HETATM   25  C   UNK     0      12.314  14.556   2.218  0.00  0.00    -0.031 A 
HETATM   26  C   UNK     0      12.267  15.950   1.627  0.00  0.00     0.051 C 
HETATM   27  C   UNK     0      13.074  13.521   1.686  0.00  0.00    -0.027 A 
HETATM   28  C   UNK     0      10.758  14.911   4.203  0.00  0.00     0.115 C 
HETATM   29  H   UNK     0      11.105  12.946   6.370  0.00  0.00     0.165 HD
HETATM   30  H   UNK     0      14.449  12.938   6.945  0.00  0.00     0.165 HD
HETATM   31  H   UNK     0      14.744  12.081   4.860  0.00  0.00     0.165 HD
HETATM   32  H   UNK     0      11.496  12.058   4.228  0.00  0.00     0.165 HD
ENDROOT
BRANCH   6  33
HETATM   33  C   UNK     0      12.663  16.938   8.419  0.00  0.00     0.051 C 
BRANCH  33  34
HETATM   34  C   UNK     0      14.158  16.785   8.566  0.00  0.00     0.114 C 
BRANCH  34  35
HETATM   35  C   UNK     0      14.523  17.260   9.932  0.00  0.00     0.139 C 
HETATM   36  O   UNK     0      14.506  16.458  10.911  0.00  0.00    -0.650 OA
BRANCH  35  37
HETATM   37  O   UNK     0      14.894  18.573  10.195  0.00  0.00    -0.776 OA
HETATM   38  H   UNK     0      14.515  19.349   9.677  0.00  0.00     0.167 HD
ENDBRANCH  35  37
ENDBRANCH  34  35
ENDBRANCH  33  34
ENDBRANCH   6  33
BRANCH  27  39
HETATM   39  C   UNK     0      13.895  13.668   0.453  0.00  0.00     0.051 C 
BRANCH  39  40
HETATM   40  C   UNK     0      14.564  12.482  -0.081  0.00  0.00     0.114 C 
BRANCH  40  41
HETATM   41  C   UNK     0      14.719  12.258  -1.500  0.00  0.00     0.139 C 
HETATM   42  O   UNK     0      14.892  11.139  -2.001  0.00  0.00    -0.650 OA
BRANCH  41  43
HETATM   43  O   UNK     0      14.673  13.373  -2.385  0.00  0.00    -0.776 OA
HETATM   44  H   UNK     0      15.505  13.949  -2.376  0.00  0.00     0.167 HD
ENDBRANCH  41  43
ENDBRANCH  40  41
ENDBRANCH  39  40
ENDBRANCH  27  39
BRANCH  11  45
HETATM   45  C   UNK     0      13.922   9.059   9.624  0.00  0.00     0.051 C 
BRANCH  45  46
HETATM   46  C   UNK     0      13.098   8.032   8.938  0.00  0.00     0.114 C 
BRANCH  46  47
HETATM   47  C   UNK     0      12.050   7.590   9.902  0.00  0.00     0.139 C 
HETATM   48  O   UNK     0      12.232   7.796  11.110  0.00  0.00    -0.650 OA
BRANCH  47  49
HETATM   49  O   UNK     0      10.908   6.969   9.463  0.00  0.00    -0.776 OA
HETATM   50  H   UNK     0      10.645   6.027   9.775  0.00  0.00     0.167 HD
ENDBRANCH  47  49
ENDBRANCH  46  47
ENDBRANCH  45  46
ENDBRANCH  11  45
BRANCH  18  51
HETATM   51  C   UNK     0      13.663   7.999   2.727  0.00  0.00     0.051 C 
BRANCH  51  52
HETATM   52  C   UNK     0      14.638   8.107   1.563  0.00  0.00     0.114 C 
BRANCH  52  53
HETATM   53  C   UNK     0      13.940   8.315   0.280  0.00  0.00     0.139 C 
HETATM   54  O   UNK     0      12.709   8.170   0.211  0.00  0.00    -0.650 OA
BRANCH  53  55
HETATM   55  O   UNK     0      14.661   8.665  -0.836  0.00  0.00    -0.776 OA
HETATM   56  H   UNK     0      15.591   8.386  -1.042  0.00  0.00     0.167 HD
ENDBRANCH  53  55
ENDBRANCH  52  53
ENDBRANCH  51  52
ENDBRANCH  18  51
TORSDOF 16
ENDMDL
MODEL 15
REMARK VINA RESULT:      -8.9     27.435     30.079
REMARK  16 active torsions:
REMARK  status: ('A' for Active; 'I' for Inactive)
REMARK    1  A    between atoms: C_6  and  C_7 
REMARK    2  A    between atoms: C_7  and  C_8 
REMARK    3  A    between atoms: C_8  and  C_9 
REMARK    4  A    between atoms: C_9  and  O_11 
REMARK    5  A    between atoms: C_16  and  C_17 
REMARK    6  A    between atoms: C_17  and  C_18 
REMARK    7  A    between atoms: C_18  and  C_19 
REMARK    8  A    between atoms: C_19  and  O_21 
REMARK    9  A    between atoms: C_28  and  C_29 
REMARK   10  A    between atoms: C_29  and  C_30 
REMARK   11  A    between atoms: C_30  and  C_31 
REMARK   12  A    between atoms: C_31  and  O_33 
REMARK   13  A    between atoms: C_42  and  C_43 
REMARK   14  A    between atoms: C_43  and  C_44 
REMARK   15  A    between atoms: C_44  and  C_45 
REMARK   16  A    between atoms: C_45  and  O_47 
ROOT
HETATM    1  C   UNK     0      14.612   6.857  11.518  0.00  0.00     0.051 C 
HETATM    2  C   UNK     0      14.027   6.808  10.122  0.00  0.00    -0.031 A 
HETATM    3  C   UNK     0      13.096   7.646   9.528  0.00  0.00     0.021 A 
HETATM    4  N   UNK     0      12.842   7.205   8.273  0.00  0.00    -0.361 N 
HETATM    5  C   UNK     0      13.596   6.108   8.052  0.00  0.00     0.022 A 
HETATM    6  C   UNK     0      14.347   5.830   9.189  0.00  0.00    -0.027 A 
HETATM    7  C   UNK     0      13.757   5.301   6.802  0.00  0.00     0.115 C 
HETATM    8  C   UNK     0      13.884   6.075   5.502  0.00  0.00     0.021 A 
HETATM    9  N   UNK     0      14.493   7.251   5.284  0.00  0.00    -0.361 N 
HETATM   10  C   UNK     0      14.276   7.604   4.000  0.00  0.00     0.022 A 
HETATM   11  C   UNK     0      13.514   6.624   3.370  0.00  0.00    -0.027 A 
HETATM   12  C   UNK     0      13.264   5.658   4.310  0.00  0.00    -0.031 A 
HETATM   13  C   UNK     0      12.471   4.392   4.073  0.00  0.00     0.051 C 
HETATM   14  C   UNK     0      14.730   8.899   3.332  0.00  0.00     0.115 C 
HETATM   15  C   UNK     0      14.157  10.154   3.970  0.00  0.00     0.021 A 
HETATM   16  N   UNK     0      14.287  10.560   5.247  0.00  0.00    -0.361 N 
HETATM   17  C   UNK     0      13.577  11.676   5.427  0.00  0.00     0.022 A 
HETATM   18  C   UNK     0      12.963  12.019   4.206  0.00  0.00    -0.027 A 
HETATM   19  C   UNK     0      13.336  11.059   3.301  0.00  0.00    -0.031 A 
HETATM   20  C   UNK     0      12.920  11.069   1.842  0.00  0.00     0.051 C 
HETATM   21  C   UNK     0      13.336  12.482   6.683  0.00  0.00     0.115 C 
HETATM   22  C   UNK     0      13.252  11.729   7.990  0.00  0.00     0.022 A 
HETATM   23  N   UNK     0      12.656  10.555   8.234  0.00  0.00    -0.361 N 
HETATM   24  C   UNK     0      12.950  10.185   9.497  0.00  0.00     0.021 A 
HETATM   25  C   UNK     0      13.747  11.149  10.083  0.00  0.00    -0.031 A 
HETATM   26  C   UNK     0      14.298  11.203  11.493  0.00  0.00     0.051 C 
HETATM   27  C   UNK     0      13.953  12.148   9.138  0.00  0.00    -0.027 A 
HETATM   28  C   UNK     0      12.579   8.889  10.196  0.00  0.00     0.115 C 
HETATM   29  H   UNK     0      12.102   7.648   7.567  0.00  0.00     0.165 HD
HETATM   30  H   UNK     0      15.119   7.810   6.022  0.00  0.00     0.165 HD
HETATM   31  H   UNK     0      14.931  10.075   6.026  0.00  0.00     0.165 HD
HETATM   32  H   UNK     0      11.985   9.996   7.531  0.00  0.00     0.165 HD
ENDROOT
BRANCH   6  33
HETATM   33  C   UNK     0      15.332   4.719   9.453  0.00  0.00     0.051 C 
BRANCH  33  34
HETATM   34  C   UNK     0      14.620   3.475   9.927  0.00  0.00     0.114 C 
BRANCH  34  35
HETATM   35  C   UNK     0      15.418   2.903  11.049  0.00  0.00     0.139 C 
HETATM   36  O   UNK     0      15.014   3.020  12.243  0.00  0.00    -0.650 OA
BRANCH  35  37
HETATM   37  O   UNK     0      16.616   2.228  10.849  0.00  0.00    -0.776 OA
HETATM   38  H   UNK     0      17.143   1.836  11.612  0.00  0.00     0.167 HD
ENDBRANCH  35  37
ENDBRANCH  34  35
ENDBRANCH  33  34
ENDBRANCH   6  33
BRANCH  27  39
HETATM   39  C   UNK     0      14.710  13.396   9.430  0.00  0.00     0.051 C 
BRANCH  39  40
HETATM   40  C   UNK     0      14.055  14.435  10.223  0.00  0.00     0.114 C 
BRANCH  40  41
HETATM   41  C   UNK     0      12.622  14.623  10.214  0.00  0.00     0.139 C 
HETATM   42  O   UNK     0      12.018  15.233   9.322  0.00  0.00    -0.650 OA
BRANCH  41  43
HETATM   43  O   UNK     0      11.848  14.085  11.281  0.00  0.00    -0.776 OA
HETATM   44  H   UNK     0      10.953  13.703  10.999  0.00  0.00     0.167 HD
ENDBRANCH  41  43
ENDBRANCH  40  41
ENDBRANCH  39  40
ENDBRANCH  27  39
BRANCH  11  45
HETATM   45  C   UNK     0      13.034   6.577   1.944  0.00  0.00     0.051 C 
BRANCH  45  46
HETATM   46  C   UNK     0      14.094   6.841   0.938  0.00  0.00     0.114 C 
BRANCH  46  47
HETATM   47  C   UNK     0      13.598   7.932   0.050  0.00  0.00     0.139 C 
HETATM   48  O   UNK     0      12.405   8.258   0.123  0.00  0.00    -0.650 OA
BRANCH  47  49
HETATM   49  O   UNK     0      14.443   8.560  -0.829  0.00  0.00    -0.776 OA
HETATM   50  H   UNK     0      14.605   9.574  -0.800  0.00  0.00     0.167 HD
ENDBRANCH  47  49
ENDBRANCH  46  47
ENDBRANCH  45  46
ENDBRANCH  11  45
BRANCH  18  51
HETATM   51  C   UNK     0      12.087  13.209   3.913  0.00  0.00     0.051 C 
BRANCH  51  52
HETATM   52  C   UNK     0      12.960  14.208   3.167  0.00  0.00     0.114 C 
BRANCH  52  53
HETATM   53  C   UNK     0      12.331  14.655   1.909  0.00  0.00     0.139 C 
HETATM   54  O   UNK     0      11.178  14.293   1.627  0.00  0.00    -0.650 OA
BRANCH  53  55
HETATM   55  O   UNK     0      13.031  15.470   1.052  0.00  0.00    -0.776 OA
HETATM   56  H   UNK     0      12.643  16.019   0.322  0.00  0.00     0.167 HD
ENDBRANCH  53  55
ENDBRANCH  52  53
ENDBRANCH  51  52
ENDBRANCH  18  51
TORSDOF 16
ENDMDL
MODEL 16
REMARK VINA RESULT:      -8.9     28.798     31.884
REMARK  16 active torsions:
REMARK  status: ('A' for Active; 'I' for Inactive)
REMARK    1  A    between atoms: C_6  and  C_7 
REMARK    2  A    between atoms: C_7  and  C_8 
REMARK    3  A    between atoms: C_8  and  C_9 
REMARK    4  A    between atoms: C_9  and  O_11 
REMARK    5  A    between atoms: C_16  and  C_17 
REMARK    6  A    between atoms: C_17  and  C_18 
REMARK    7  A    between atoms: C_18  and  C_19 
REMARK    8  A    between atoms: C_19  and  O_21 
REMARK    9  A    between atoms: C_28  and  C_29 
REMARK   10  A    between atoms: C_29  and  C_30 
REMARK   11  A    between atoms: C_30  and  C_31 
REMARK   12  A    between atoms: C_31  and  O_33 
REMARK   13  A    between atoms: C_42  and  C_43 
REMARK   14  A    between atoms: C_43  and  C_44 
REMARK   15  A    between atoms: C_44  and  C_45 
REMARK   16  A    between atoms: C_45  and  O_47 
ROOT
HETATM    1  C   UNK     0      13.375  10.068  11.190  0.00  0.00     0.051 C 
HETATM    2  C   UNK     0      13.564  11.200  10.201  0.00  0.00    -0.031 A 
HETATM    3  C   UNK     0      14.446  11.300   9.136  0.00  0.00     0.021 A 
HETATM    4  N   UNK     0      14.287  12.507   8.544  0.00  0.00    -0.361 N 
HETATM    5  C   UNK     0      13.317  13.175   9.202  0.00  0.00     0.022 A 
HETATM    6  C   UNK     0      12.845  12.388  10.247  0.00  0.00    -0.027 A 
HETATM    7  C   UNK     0      12.699  14.504   8.895  0.00  0.00     0.115 C 
HETATM    8  C   UNK     0      12.385  14.788   7.437  0.00  0.00     0.021 A 
HETATM    9  N   UNK     0      11.961  13.936   6.491  0.00  0.00    -0.361 N 
HETATM   10  C   UNK     0      11.902  14.604   5.320  0.00  0.00     0.022 A 
HETATM   11  C   UNK     0      12.288  15.927   5.519  0.00  0.00    -0.027 A 
HETATM   12  C   UNK     0      12.593  16.049   6.851  0.00  0.00    -0.031 A 
HETATM   13  C   UNK     0      13.059  17.319   7.528  0.00  0.00     0.051 C 
HETATM   14  C   UNK     0      11.531  14.014   3.963  0.00  0.00     0.115 C 
HETATM   15  C   UNK     0      12.463  12.907   3.498  0.00  0.00     0.021 A 
HETATM   16  N   UNK     0      12.740  11.748   4.124  0.00  0.00    -0.361 N 
HETATM   17  C   UNK     0      13.661  11.081   3.425  0.00  0.00     0.022 A 
HETATM   18  C   UNK     0      13.993  11.836   2.283  0.00  0.00    -0.027 A 
HETATM   19  C   UNK     0      13.235  12.977   2.340  0.00  0.00    -0.031 A 
HETATM   20  C   UNK     0      13.258  14.059   1.275  0.00  0.00     0.051 C 
HETATM   21  C   UNK     0      14.356   9.774   3.733  0.00  0.00     0.115 C 
HETATM   22  C   UNK     0      14.636   9.458   5.183  0.00  0.00     0.022 A 
HETATM   23  N   UNK     0      15.054  10.288   6.148  0.00  0.00    -0.361 N 
HETATM   24  C   UNK     0      15.032   9.620   7.320  0.00  0.00     0.021 A 
HETATM   25  C   UNK     0      14.598   8.327   7.102  0.00  0.00    -0.031 A 
HETATM   26  C   UNK     0      14.446   7.193   8.095  0.00  0.00     0.051 C 
HETATM   27  C   UNK     0      14.339   8.198   5.743  0.00  0.00    -0.027 A 
HETATM   28  C   UNK     0      15.331  10.165   8.705  0.00  0.00     0.115 C 
HETATM   29  H   UNK     0      14.888  12.895   7.689  0.00  0.00     0.165 HD
HETATM   30  H   UNK     0      11.656  12.873   6.657  0.00  0.00     0.165 HD
HETATM   31  H   UNK     0      12.241  11.371   5.054  0.00  0.00     0.165 HD
HETATM   32  H   UNK     0      15.411  11.340   6.004  0.00  0.00     0.165 HD
ENDROOT
BRANCH   6  33
HETATM   33  C   UNK     0      11.779  12.675  11.273  0.00  0.00     0.051 C 
BRANCH  33  34
HETATM   34  C   UNK     0      12.339  13.493  12.413  0.00  0.00     0.114 C 
BRANCH  34  35
HETATM   35  C   UNK     0      12.296  12.641  13.637  0.00  0.00     0.139 C 
HETATM   36  O   UNK     0      13.354  12.101  14.074  0.00  0.00    -0.650 OA
BRANCH  35  37
HETATM   37  O   UNK     0      11.124  12.405  14.344  0.00  0.00    -0.776 OA
HETATM   38  H   UNK     0      10.566  13.155  14.720  0.00  0.00     0.167 HD
ENDBRANCH  35  37
ENDBRANCH  34  35
ENDBRANCH  33  34
ENDBRANCH   6  33
BRANCH  27  39
HETATM   39  C   UNK     0      13.918   6.916   5.115  0.00  0.00     0.051 C 
BRANCH  39  40
HETATM   40  C   UNK     0      14.911   6.157   4.355  0.00  0.00     0.114 C 
BRANCH  40  41
HETATM   41  C   UNK     0      14.585   4.919   3.683  0.00  0.00     0.139 C 
HETATM   42  O   UNK     0      13.426   4.562   3.433  0.00  0.00    -0.650 OA
BRANCH  41  43
HETATM   43  O   UNK     0      15.641   4.053   3.280  0.00  0.00    -0.776 OA
HETATM   44  H   UNK     0      16.569   4.441   3.397  0.00  0.00     0.167 HD
ENDBRANCH  41  43
ENDBRANCH  40  41
ENDBRANCH  39  40
ENDBRANCH  27  39
BRANCH  11  45
HETATM   45  C   UNK     0      12.371  17.045   4.515  0.00  0.00     0.051 C 
BRANCH  45  46
HETATM   46  C   UNK     0      11.092  17.773   4.312  0.00  0.00     0.114 C 
BRANCH  46  47
HETATM   47  C   UNK     0      10.899  17.924   2.841  0.00  0.00     0.139 C 
HETATM   48  O   UNK     0      11.616  17.261   2.079  0.00  0.00    -0.650 OA
BRANCH  47  49
HETATM   49  O   UNK     0       9.951  18.781   2.342  0.00  0.00    -0.776 OA
HETATM   50  H   UNK     0       9.071  18.442   1.936  0.00  0.00     0.167 HD
ENDBRANCH  47  49
ENDBRANCH  46  47
ENDBRANCH  45  46
ENDBRANCH  11  45
BRANCH  18  51
HETATM   51  C   UNK     0      14.963  11.480   1.187  0.00  0.00     0.051 C 
BRANCH  51  52
HETATM   52  C   UNK     0      14.159  10.737   0.130  0.00  0.00     0.114 C 
BRANCH  52  53
HETATM   53  C   UNK     0      14.309   9.274   0.254  0.00  0.00     0.139 C 
HETATM   54  O   UNK     0      15.386   8.790   0.638  0.00  0.00    -0.650 OA
BRANCH  53  55
HETATM   55  O   UNK     0      13.253   8.454  -0.061  0.00  0.00    -0.776 OA
HETATM   56  H   UNK     0      13.084   8.033  -0.944  0.00  0.00     0.167 HD
ENDBRANCH  53  55
ENDBRANCH  52  53
ENDBRANCH  51  52
ENDBRANCH  18  51
TORSDOF 16
ENDMDL
MODEL 17
REMARK VINA RESULT:      -8.7     26.589     29.238
REMARK  16 active torsions:
REMARK  status: ('A' for Active; 'I' for Inactive)
REMARK    1  A    between atoms: C_6  and  C_7 
REMARK    2  A    between atoms: C_7  and  C_8 
REMARK    3  A    between atoms: C_8  and  C_9 
REMARK    4  A    between atoms: C_9  and  O_11 
REMARK    5  A    between atoms: C_16  and  C_17 
REMARK    6  A    between atoms: C_17  and  C_18 
REMARK    7  A    between atoms: C_18  and  C_19 
REMARK    8  A    between atoms: C_19  and  O_21 
REMARK    9  A    between atoms: C_28  and  C_29 
REMARK   10  A    between atoms: C_29  and  C_30 
REMARK   11  A    between atoms: C_30  and  C_31 
REMARK   12  A    between atoms: C_31  and  O_33 
REMARK   13  A    between atoms: C_42  and  C_43 
REMARK   14  A    between atoms: C_43  and  C_44 
REMARK   15  A    between atoms: C_44  and  C_45 
REMARK   16  A    between atoms: C_45  and  O_47 
ROOT
HETATM    1  C   UNK     0      11.981   4.643  10.886  0.00  0.00     0.051 C 
HETATM    2  C   UNK     0      12.024   5.294   9.519  0.00  0.00    -0.031 A 
HETATM    3  C   UNK     0      11.304   6.377   9.038  0.00  0.00     0.021 A 
HETATM    4  N   UNK     0      11.644   6.593   7.745  0.00  0.00    -0.361 N 
HETATM    5  C   UNK     0      12.571   5.677   7.395  0.00  0.00     0.022 A 
HETATM    6  C   UNK     0      12.830   4.847   8.480  0.00  0.00    -0.027 A 
HETATM    7  C   UNK     0      13.337   5.539   6.116  0.00  0.00     0.115 C 
HETATM    8  C   UNK     0      13.867   6.820   5.497  0.00  0.00     0.021 A 
HETATM    9  N   UNK     0      14.338   7.915   6.114  0.00  0.00    -0.361 N 
HETATM   10  C   UNK     0      14.611   8.842   5.172  0.00  0.00     0.022 A 
HETATM   11  C   UNK     0      14.317   8.328   3.913  0.00  0.00    -0.027 A 
HETATM   12  C   UNK     0      13.848   7.054   4.110  0.00  0.00    -0.031 A 
HETATM   13  C   UNK     0      13.408   6.106   3.017  0.00  0.00     0.051 C 
HETATM   14  C   UNK     0      15.107  10.263   5.424  0.00  0.00     0.115 C 
HETATM   15  C   UNK     0      14.153  11.112   6.249  0.00  0.00     0.021 A 
HETATM   16  N   UNK     0      13.696  10.862   7.491  0.00  0.00    -0.361 N 
HETATM   17  C   UNK     0      12.823  11.811   7.836  0.00  0.00     0.022 A 
HETATM   18  C   UNK     0      12.713  12.728   6.772  0.00  0.00    -0.027 A 
HETATM   19  C   UNK     0      13.552  12.280   5.785  0.00  0.00    -0.031 A 
HETATM   20  C   UNK     0      13.765  13.000   4.466  0.00  0.00     0.051 C 
HETATM   21  C   UNK     0      11.983  11.951   9.085  0.00  0.00     0.115 C 
HETATM   22  C   UNK     0      11.485  10.682   9.736  0.00  0.00     0.022 A 
HETATM   23  N   UNK     0      11.015   9.575   9.147  0.00  0.00    -0.361 N 
HETATM   24  C   UNK     0      10.823   8.638  10.097  0.00  0.00     0.021 A 
HETATM   25  C   UNK     0      11.169   9.157  11.330  0.00  0.00    -0.031 A 
HETATM   26  C   UNK     0      11.089   8.506  12.695  0.00  0.00     0.051 C 
HETATM   27  C   UNK     0      11.595  10.464  11.125  0.00  0.00    -0.027 A 
HETATM   28  C   UNK     0      10.390   7.195   9.905  0.00  0.00     0.115 C 
HETATM   29  H   UNK     0      11.198   7.365   7.077  0.00  0.00     0.165 HD
HETATM   30  H   UNK     0      14.525   8.018   7.211  0.00  0.00     0.165 HD
HETATM   31  H   UNK     0      14.032  10.025   8.157  0.00  0.00     0.165 HD
HETATM   32  H   UNK     0      10.773   9.459   8.058  0.00  0.00     0.165 HD
ENDROOT
BRANCH   6  33
HETATM   33  C   UNK     0      13.771   3.675   8.603  0.00  0.00     0.051 C 
BRANCH  33  34
HETATM   34  C   UNK     0      15.205   4.145   8.667  0.00  0.00     0.114 C 
BRANCH  34  35
HETATM   35  C   UNK     0      15.631   4.082  10.095  0.00  0.00     0.139 C 
HETATM   36  O   UNK     0      15.536   5.104  10.834  0.00  0.00    -0.650 OA
BRANCH  35  37
HETATM   37  O   UNK     0      16.141   2.926  10.674  0.00  0.00    -0.776 OA
HETATM   38  H   UNK     0      16.557   2.927  11.592  0.00  0.00     0.167 HD
ENDBRANCH  35  37
ENDBRANCH  34  35
ENDBRANCH  33  34
ENDBRANCH   6  33
BRANCH  27  39
HETATM   39  C   UNK     0      11.984  11.374  12.237  0.00  0.00     0.051 C 
BRANCH  39  40
HETATM   40  C   UNK     0      13.396  11.448  12.612  0.00  0.00     0.114 C 
BRANCH  40  41
HETATM   41  C   UNK     0      14.339  12.279  11.899  0.00  0.00     0.139 C 
HETATM   42  O   UNK     0      14.563  13.463  12.188  0.00  0.00    -0.650 OA
BRANCH  41  43
HETATM   43  O   UNK     0      15.059  11.724  10.803  0.00  0.00    -0.776 OA
HETATM   44  H   UNK     0      15.680  12.374  10.337  0.00  0.00     0.167 HD
ENDBRANCH  41  43
ENDBRANCH  40  41
ENDBRANCH  39  40
ENDBRANCH  27  39
BRANCH  11  45
HETATM   45  C   UNK     0      14.466   8.987   2.568  0.00  0.00     0.051 C 
BRANCH  45  46
HETATM   46  C   UNK     0      13.497  10.086   2.321  0.00  0.00     0.114 C 
BRANCH  46  47
HETATM   47  C   UNK     0      14.089  10.969   1.276  0.00  0.00     0.139 C 
HETATM   48  O   UNK     0      15.322  11.078   1.220  0.00  0.00    -0.650 OA
BRANCH  47  49
HETATM   49  O   UNK     0      13.287  11.648   0.394  0.00  0.00    -0.776 OA
HETATM   50  H   UNK     0      13.314  11.469  -0.617  0.00  0.00     0.167 HD
ENDBRANCH  47  49
ENDBRANCH  46  47
ENDBRANCH  45  46
ENDBRANCH  11  45
BRANCH  18  51
HETATM   51  C   UNK     0      11.870  13.976   6.708  0.00  0.00     0.051 C 
BRANCH  51  52
HETATM   52  C   UNK     0      12.712  15.090   7.313  0.00  0.00     0.114 C 
BRANCH  52  53
HETATM   53  C   UNK     0      12.484  16.381   6.635  0.00  0.00     0.139 C 
HETATM   54  O   UNK     0      13.443  17.128   6.384  0.00  0.00    -0.650 OA
BRANCH  53  55
HETATM   55  O   UNK     0      11.207  16.750   6.287  0.00  0.00    -0.776 OA
HETATM   56  H   UNK     0      10.633  17.396   6.775  0.00  0.00     0.167 HD
ENDBRANCH  53  55
ENDBRANCH  52  53
ENDBRANCH  51  52
ENDBRANCH  18  51
TORSDOF 16
ENDMDL
MODEL 18
REMARK VINA RESULT:      -8.6     27.540     30.599
REMARK  16 active torsions:
REMARK  status: ('A' for Active; 'I' for Inactive)
REMARK    1  A    between atoms: C_6  and  C_7 
REMARK    2  A    between atoms: C_7  and  C_8 
REMARK    3  A    between atoms: C_8  and  C_9 
REMARK    4  A    between atoms: C_9  and  O_11 
REMARK    5  A    between atoms: C_16  and  C_17 
REMARK    6  A    between atoms: C_17  and  C_18 
REMARK    7  A    between atoms: C_18  and  C_19 
REMARK    8  A    between atoms: C_19  and  O_21 
REMARK    9  A    between atoms: C_28  and  C_29 
REMARK   10  A    between atoms: C_29  and  C_30 
REMARK   11  A    between atoms: C_30  and  C_31 
REMARK   12  A    between atoms: C_31  and  O_33 
REMARK   13  A    between atoms: C_42  and  C_43 
REMARK   14  A    between atoms: C_43  and  C_44 
REMARK   15  A    between atoms: C_44  and  C_45 
REMARK   16  A    between atoms: C_45  and  O_47 
ROOT
HETATM    1  C   UNK     0      13.985   7.932   2.641  0.00  0.00     0.051 C 
HETATM    2  C   UNK     0      14.201   8.194   4.118  0.00  0.00    -0.031 A 
HETATM    3  C   UNK     0      14.644   9.344   4.752  0.00  0.00     0.021 A 
HETATM    4  N   UNK     0      14.716   9.114   6.084  0.00  0.00    -0.361 N 
HETATM    5  C   UNK     0      14.320   7.845   6.314  0.00  0.00     0.022 A 
HETATM    6  C   UNK     0      13.994   7.240   5.105  0.00  0.00    -0.027 A 
HETATM    7  C   UNK     0      14.129   7.128   7.614  0.00  0.00     0.115 C 
HETATM    8  C   UNK     0      13.454   7.907   8.729  0.00  0.00     0.021 A 
HETATM    9  N   UNK     0      12.469   8.814   8.638  0.00  0.00    -0.361 N 
HETATM   10  C   UNK     0      12.246   9.317   9.871  0.00  0.00     0.022 A 
HETATM   11  C   UNK     0      13.105   8.710  10.783  0.00  0.00    -0.027 A 
HETATM   12  C   UNK     0      13.868   7.821  10.070  0.00  0.00    -0.031 A 
HETATM   13  C   UNK     0      14.941   6.927  10.652  0.00  0.00     0.051 C 
HETATM   14  C   UNK     0      11.257  10.422  10.228  0.00  0.00     0.115 C 
HETATM   15  C   UNK     0      11.536  11.746   9.535  0.00  0.00     0.021 A 
HETATM   16  N   UNK     0      11.595  11.984   8.211  0.00  0.00    -0.361 N 
HETATM   17  C   UNK     0      11.934  13.259   8.010  0.00  0.00     0.022 A 
HETATM   18  C   UNK     0      12.094  13.885   9.262  0.00  0.00    -0.027 A 
HETATM   19  C   UNK     0      11.841  12.927  10.209  0.00  0.00    -0.031 A 
HETATM   20  C   UNK     0      11.868  13.190  11.704  0.00  0.00     0.051 C 
HETATM   21  C   UNK     0      12.201  14.002   6.720  0.00  0.00     0.115 C 
HETATM   22  C   UNK     0      12.832  13.227   5.587  0.00  0.00     0.022 A 
HETATM   23  N   UNK     0      13.812  12.315   5.649  0.00  0.00    -0.361 N 
HETATM   24  C   UNK     0      13.963  11.772   4.425  0.00  0.00     0.021 A 
HETATM   25  C   UNK     0      13.067  12.356   3.550  0.00  0.00    -0.031 A 
HETATM   26  C   UNK     0      12.884  12.109   2.067  0.00  0.00     0.051 C 
HETATM   27  C   UNK     0      12.332  13.290   4.271  0.00  0.00    -0.027 A 
HETATM   28  C   UNK     0      14.884  10.634   4.020  0.00  0.00     0.115 C 
HETATM   29  H   UNK     0      15.084   9.837   6.849  0.00  0.00     0.165 HD
HETATM   30  H   UNK     0      11.894   9.066   7.713  0.00  0.00     0.165 HD
HETATM   31  H   UNK     0      11.346  11.250   7.402  0.00  0.00     0.165 HD
HETATM   32  H   UNK     0      14.435  12.077   6.550  0.00  0.00     0.165 HD
ENDROOT
BRANCH   6  33
HETATM   33  C   UNK     0      13.508   5.841   4.820  0.00  0.00     0.051 C 
BRANCH  33  34
HETATM   34  C   UNK     0      14.625   4.989   4.267  0.00  0.00     0.114 C 
BRANCH  34  35
HETATM   35  C   UNK     0      15.442   4.518   5.423  0.00  0.00     0.139 C 
HETATM   36  O   UNK     0      14.990   3.628   6.202  0.00  0.00    -0.650 OA
BRANCH  35  37
HETATM   37  O   UNK     0      16.709   5.016   5.697  0.00  0.00    -0.776 OA
HETATM   38  H   UNK     0      16.963   5.360   6.610  0.00  0.00     0.167 HD
ENDBRANCH  35  37
ENDBRANCH  34  35
ENDBRANCH  33  34
ENDBRANCH   6  33
BRANCH  27  39
HETATM   39  C   UNK     0      11.311  14.175   3.647  0.00  0.00     0.051 C 
BRANCH  39  40
HETATM   40  C   UNK     0      11.722  15.510   3.212  0.00  0.00     0.114 C 
BRANCH  40  41
HETATM   41  C   UNK     0      11.483  15.991   1.870  0.00  0.00     0.139 C 
HETATM   42  O   UNK     0      10.352  16.180   1.403  0.00  0.00    -0.650 OA
BRANCH  41  43
HETATM   43  O   UNK     0      12.596  16.267   1.026  0.00  0.00    -0.776 OA
HETATM   44  H   UNK     0      12.612  17.206   0.647  0.00  0.00     0.167 HD
ENDBRANCH  41  43
ENDBRANCH  40  41
ENDBRANCH  39  40
ENDBRANCH  27  39
BRANCH  11  45
HETATM   45  C   UNK     0      13.218   8.939  12.266  0.00  0.00     0.051 C 
BRANCH  45  46
HETATM   46  C   UNK     0      13.902  10.205  12.633  0.00  0.00     0.114 C 
BRANCH  46  47
HETATM   47  C   UNK     0      14.537   9.993  13.965  0.00  0.00     0.139 C 
HETATM   48  O   UNK     0      14.868   8.844  14.288  0.00  0.00    -0.650 OA
BRANCH  47  49
HETATM   49  O   UNK     0      14.751  11.047  14.818  0.00  0.00    -0.776 OA
HETATM   50  H   UNK     0      14.020  11.391  15.452  0.00  0.00     0.167 HD
ENDBRANCH  47  49
ENDBRANCH  46  47
ENDBRANCH  45  46
ENDBRANCH  11  45
BRANCH  18  51
HETATM   51  C   UNK     0      12.449  15.322   9.541  0.00  0.00     0.051 C 
BRANCH  51  52
HETATM   52  C   UNK     0      13.967  15.379   9.620  0.00  0.00     0.114 C 
BRANCH  52  53
HETATM   53  C   UNK     0      14.428  16.163  10.783  0.00  0.00     0.139 C 
HETATM   54  O   UNK     0      14.698  17.367  10.653  0.00  0.00    -0.650 OA
BRANCH  53  55
HETATM   55  O   UNK     0      14.559  15.551  12.006  0.00  0.00    -0.776 OA
HETATM   56  H   UNK     0      13.819  15.186  12.558  0.00  0.00     0.167 HD
ENDBRANCH  53  55
ENDBRANCH  52  53
ENDBRANCH  51  52
ENDBRANCH  18  51
TORSDOF 16
ENDMDL
MODEL 19
REMARK VINA RESULT:      -8.6     27.587     31.069
REMARK  16 active torsions:
REMARK  status: ('A' for Active; 'I' for Inactive)
REMARK    1  A    between atoms: C_6  and  C_7 
REMARK    2  A    between atoms: C_7  and  C_8 
REMARK    3  A    between atoms: C_8  and  C_9 
REMARK    4  A    between atoms: C_9  and  O_11 
REMARK    5  A    between atoms: C_16  and  C_17 
REMARK    6  A    between atoms: C_17  and  C_18 
REMARK    7  A    between atoms: C_18  and  C_19 
REMARK    8  A    between atoms: C_19  and  O_21 
REMARK    9  A    between atoms: C_28  and  C_29 
REMARK   10  A    between atoms: C_29  and  C_30 
REMARK   11  A    between atoms: C_30  and  C_31 
REMARK   12  A    between atoms: C_31  and  O_33 
REMARK   13  A    between atoms: C_42  and  C_43 
REMARK   14  A    between atoms: C_43  and  C_44 
REMARK   15  A    between atoms: C_44  and  C_45 
REMARK   16  A    between atoms: C_45  and  O_47 
ROOT
HETATM    1  C   UNK     0      12.756  13.220  12.702  0.00  0.00     0.051 C 
HETATM    2  C   UNK     0      12.579  12.092  11.706  0.00  0.00    -0.031 A 
HETATM    3  C   UNK     0      11.876  12.074  10.512  0.00  0.00     0.021 A 
HETATM    4  N   UNK     0      11.966  10.838   9.965  0.00  0.00    -0.361 N 
HETATM    5  C   UNK     0      12.718  10.071  10.780  0.00  0.00     0.022 A 
HETATM    6  C   UNK     0      13.116  10.822  11.881  0.00  0.00    -0.027 A 
HETATM    7  C   UNK     0      13.194   8.664  10.592  0.00  0.00     0.115 C 
HETATM    8  C   UNK     0      13.700   8.295   9.208  0.00  0.00     0.021 A 
HETATM    9  N   UNK     0      14.381   9.056   8.337  0.00  0.00    -0.361 N 
HETATM   10  C   UNK     0      14.539   8.348   7.198  0.00  0.00     0.022 A 
HETATM   11  C   UNK     0      13.952   7.095   7.343  0.00  0.00    -0.027 A 
HETATM   12  C   UNK     0      13.422   7.055   8.607  0.00  0.00    -0.031 A 
HETATM   13  C   UNK     0      12.687   5.878   9.210  0.00  0.00     0.051 C 
HETATM   14  C   UNK     0      15.200   8.843   5.914  0.00  0.00     0.115 C 
HETATM   15  C   UNK     0      14.512  10.046   5.291  0.00  0.00     0.021 A 
HETATM   16  N   UNK     0      14.295  11.250   5.853  0.00  0.00    -0.361 N 
HETATM   17  C   UNK     0      13.597  12.010   5.005  0.00  0.00     0.022 A 
HETATM   18  C   UNK     0      13.356  11.269   3.832  0.00  0.00    -0.027 A 
HETATM   19  C   UNK     0      13.935  10.041   4.023  0.00  0.00    -0.031 A 
HETATM   20  C   UNK     0      13.941   8.939   2.979  0.00  0.00     0.051 C 
HETATM   21  C   UNK     0      13.042  13.405   5.182  0.00  0.00     0.115 C 
HETATM   22  C   UNK     0      12.576  13.801   6.564  0.00  0.00     0.022 A 
HETATM   23  N   UNK     0      11.900  13.063   7.455  0.00  0.00    -0.361 N 
HETATM   24  C   UNK     0      11.822  13.758   8.607  0.00  0.00     0.021 A 
HETATM   25  C   UNK     0      12.454  14.977   8.452  0.00  0.00    -0.031 A 
HETATM   26  C   UNK     0      12.594  16.111   9.446  0.00  0.00     0.051 C 
HETATM   27  C   UNK     0      12.945  15.027   7.152  0.00  0.00    -0.027 A 
HETATM   28  C   UNK     0      11.232  13.301   9.930  0.00  0.00     0.115 C 
HETATM   29  H   UNK     0      11.464  10.506   9.027  0.00  0.00     0.165 HD
HETATM   30  H   UNK     0      14.795  10.074   8.540  0.00  0.00     0.165 HD
HETATM   31  H   UNK     0      14.683  11.589   6.849  0.00  0.00     0.165 HD
HETATM   32  H   UNK     0      11.434  12.062   7.264  0.00  0.00     0.165 HD
ENDROOT
BRANCH   6  33
HETATM   33  C   UNK     0      13.954  10.431  13.071  0.00  0.00     0.051 C 
BRANCH  33  34
HETATM   34  C   UNK     0      13.158   9.575  14.028  0.00  0.00     0.114 C 
BRANCH  34  35
HETATM   35  C   UNK     0      14.059   8.488  14.509  0.00  0.00     0.139 C 
HETATM   36  O   UNK     0      14.751   7.823  13.684  0.00  0.00    -0.650 OA
BRANCH  35  37
HETATM   37  O   UNK     0      14.183   8.158  15.853  0.00  0.00    -0.776 OA
HETATM   38  H   UNK     0      14.845   8.617  16.457  0.00  0.00     0.167 HD
ENDBRANCH  35  37
ENDBRANCH  34  35
ENDBRANCH  33  34
ENDBRANCH   6  33
BRANCH  27  39
HETATM   39  C   UNK     0      13.629  16.223   6.590  0.00  0.00     0.051 C 
BRANCH  39  40
HETATM   40  C   UNK     0      12.853  17.137   5.753  0.00  0.00     0.114 C 
BRANCH  40  41
HETATM   41  C   UNK     0      11.410  17.079   5.680  0.00  0.00     0.139 C 
HETATM   42  O   UNK     0      10.662  17.612   6.510  0.00  0.00    -0.650 OA
BRANCH  41  43
HETATM   43  O   UNK     0      10.801  16.374   4.603  0.00  0.00    -0.776 OA
HETATM   44  H   UNK     0      10.014  15.797   4.873  0.00  0.00     0.167 HD
ENDBRANCH  41  43
ENDBRANCH  40  41
ENDBRANCH  39  40
ENDBRANCH  27  39
BRANCH  11  45
HETATM   45  C   UNK     0      13.884   5.966   6.350  0.00  0.00     0.051 C 
BRANCH  45  46
HETATM   46  C   UNK     0      14.972   4.965   6.493  0.00  0.00     0.114 C 
BRANCH  46  47
HETATM   47  C   UNK     0      15.946   5.211   5.391  0.00  0.00     0.139 C 
HETATM   48  O   UNK     0      15.537   5.734   4.345  0.00  0.00    -0.650 OA
BRANCH  47  49
HETATM   49  O   UNK     0      17.266   4.864   5.529  0.00  0.00    -0.776 OA
HETATM   50  H   UNK     0      17.577   4.164   6.213  0.00  0.00     0.167 HD
ENDBRANCH  47  49
ENDBRANCH  46  47
ENDBRANCH  45  46
ENDBRANCH  11  45
BRANCH  18  51
HETATM   51  C   UNK     0      12.632  11.714   2.587  0.00  0.00     0.051 C 
BRANCH  51  52
HETATM   52  C   UNK     0      13.600  12.609   1.828  0.00  0.00     0.114 C 
BRANCH  52  53
HETATM   53  C   UNK     0      14.315  11.872   0.769  0.00  0.00     0.139 C 
HETATM   54  O   UNK     0      13.835  11.805  -0.374  0.00  0.00    -0.650 OA
BRANCH  53  55
HETATM   55  O   UNK     0      15.511  11.259   1.056  0.00  0.00    -0.776 OA
HETATM   56  H   UNK     0      15.751  10.320   0.844  0.00  0.00     0.167 HD
ENDBRANCH  53  55
ENDBRANCH  52  53
ENDBRANCH  51  52
ENDBRANCH  18  51
TORSDOF 16
ENDMDL
MODEL 20
REMARK VINA RESULT:      -8.5     27.581     29.758
REMARK  16 active torsions:
REMARK  status: ('A' for Active; 'I' for Inactive)
REMARK    1  A    between atoms: C_6  and  C_7 
REMARK    2  A    between atoms: C_7  and  C_8 
REMARK    3  A    between atoms: C_8  and  C_9 
REMARK    4  A    between atoms: C_9  and  O_11 
REMARK    5  A    between atoms: C_16  and  C_17 
REMARK    6  A    between atoms: C_17  and  C_18 
REMARK    7  A    between atoms: C_18  and  C_19 
REMARK    8  A    between atoms: C_19  and  O_21 
REMARK    9  A    between atoms: C_28  and  C_29 
REMARK   10  A    between atoms: C_29  and  C_30 
REMARK   11  A    between atoms: C_30  and  C_31 
REMARK   12  A    between atoms: C_31  and  O_33 
REMARK   13  A    between atoms: C_42  and  C_43 
REMARK   14  A    between atoms: C_43  and  C_44 
REMARK   15  A    between atoms: C_44  and  C_45 
REMARK   16  A    between atoms: C_45  and  O_47 
ROOT
HETATM    1  C   UNK     0      15.984   4.301   4.792  0.00  0.00     0.051 C 
HETATM    2  C   UNK     0      15.117   5.513   4.519  0.00  0.00    -0.031 A 
HETATM    3  C   UNK     0      13.993   5.961   5.194  0.00  0.00     0.021 A 
HETATM    4  N   UNK     0      13.522   7.071   4.579  0.00  0.00    -0.361 N 
HETATM    5  C   UNK     0      14.326   7.345   3.531  0.00  0.00     0.022 A 
HETATM    6  C   UNK     0      15.333   6.389   3.463  0.00  0.00    -0.027 A 
HETATM    7  C   UNK     0      14.299   8.509   2.589  0.00  0.00     0.115 C 
HETATM    8  C   UNK     0      14.052   9.876   3.202  0.00  0.00     0.021 A 
HETATM    9  N   UNK     0      14.465  10.347   4.389  0.00  0.00    -0.361 N 
HETATM   10  C   UNK     0      13.935  11.577   4.558  0.00  0.00     0.022 A 
HETATM   11  C   UNK     0      13.168  11.911   3.446  0.00  0.00    -0.027 A 
HETATM   12  C   UNK     0      13.238  10.844   2.588  0.00  0.00    -0.031 A 
HETATM   13  C   UNK     0      12.558  10.761   1.239  0.00  0.00     0.051 C 
HETATM   14  C   UNK     0      14.087  12.461   5.793  0.00  0.00     0.115 C 
HETATM   15  C   UNK     0      13.531  11.843   7.065  0.00  0.00     0.021 A 
HETATM   16  N   UNK     0      13.891  10.678   7.637  0.00  0.00    -0.361 N 
HETATM   17  C   UNK     0      13.118  10.456   8.703  0.00  0.00     0.022 A 
HETATM   18  C   UNK     0      12.218  11.532   8.837  0.00  0.00    -0.027 A 
HETATM   19  C   UNK     0      12.488  12.394   7.806  0.00  0.00    -0.031 A 
HETATM   20  C   UNK     0      11.766  13.713   7.598  0.00  0.00     0.051 C 
HETATM   21  C   UNK     0      13.068   9.268   9.637  0.00  0.00     0.115 C 
HETATM   22  C   UNK     0      13.355   7.906   9.050  0.00  0.00     0.022 A 
HETATM   23  N   UNK     0      12.961   7.412   7.869  0.00  0.00    -0.361 N 
HETATM   24  C   UNK     0      13.563   6.219   7.687  0.00  0.00     0.021 A 
HETATM   25  C   UNK     0      14.356   5.934   8.782  0.00  0.00    -0.031 A 
HETATM   26  C   UNK     0      15.192   4.702   9.058  0.00  0.00     0.051 C 
HETATM   27  C   UNK     0      14.240   6.999   9.668  0.00  0.00    -0.027 A 
HETATM   28  C   UNK     0      13.499   5.323   6.462  0.00  0.00     0.115 C 
HETATM   29  H   UNK     0      12.601   7.630   4.865  0.00  0.00     0.165 HD
HETATM   30  H   UNK     0      15.171   9.835   5.087  0.00  0.00     0.165 HD
HETATM   31  H   UNK     0      14.739  10.022   7.311  0.00  0.00     0.165 HD
HETATM   32  H   UNK     0      12.219   7.881   7.172  0.00  0.00     0.165 HD
ENDROOT
BRANCH   6  33
HETATM   33  C   UNK     0      16.469   6.244   2.481  0.00  0.00     0.051 C 
BRANCH  33  34
HETATM   34  C   UNK     0      16.006   5.542   1.227  0.00  0.00     0.114 C 
BRANCH  34  35
HETATM   35  C   UNK     0      16.972   4.440   0.949  0.00  0.00     0.139 C 
HETATM   36  O   UNK     0      18.106   4.432   1.510  0.00  0.00    -0.650 OA
BRANCH  35  37
HETATM   37  O   UNK     0      16.684   3.391   0.085  0.00  0.00    -0.776 OA
HETATM   38  H   UNK     0      17.208   2.531   0.095  0.00  0.00     0.167 HD
ENDBRANCH  35  37
ENDBRANCH  34  35
ENDBRANCH  33  34
ENDBRANCH   6  33
BRANCH  27  39
HETATM   39  C   UNK     0      14.899   7.020  11.002  0.00  0.00     0.051 C 
BRANCH  39  40
HETATM   40  C   UNK     0      14.068   6.824  12.189  0.00  0.00     0.114 C 
BRANCH  40  41
HETATM   41  C   UNK     0      13.706   7.915  13.065  0.00  0.00     0.139 C 
HETATM   42  O   UNK     0      14.535   8.638  13.635  0.00  0.00    -0.650 OA
BRANCH  41  43
HETATM   43  O   UNK     0      12.328   8.188  13.298  0.00  0.00    -0.776 OA
HETATM   44  H   UNK     0      12.057   8.174  14.273  0.00  0.00     0.167 HD
ENDBRANCH  41  43
ENDBRANCH  40  41
ENDBRANCH  39  40
ENDBRANCH  27  39
BRANCH  11  45
HETATM   45  C   UNK     0      12.396  13.176   3.180  0.00  0.00     0.051 C 
BRANCH  45  46
HETATM   46  C   UNK     0      13.194  14.247   2.529  0.00  0.00     0.114 C 
BRANCH  46  47
HETATM   47  C   UNK     0      12.295  14.942   1.564  0.00  0.00     0.139 C 
HETATM   48  O   UNK     0      11.153  14.494   1.389  0.00  0.00    -0.650 OA
BRANCH  47  49
HETATM   49  O   UNK     0      12.721  16.054   0.883  0.00  0.00    -0.776 OA
HETATM   50  H   UNK     0      13.138  16.861   1.362  0.00  0.00     0.167 HD
ENDBRANCH  47  49
ENDBRANCH  46  47
ENDBRANCH  45  46
ENDBRANCH  11  45
BRANCH  18  51
HETATM   51  C   UNK     0      11.172  11.738   9.902  0.00  0.00     0.051 C 
BRANCH  51  52
HETATM   52  C   UNK     0      11.753  12.749  10.880  0.00  0.00     0.114 C 
BRANCH  52  53
HETATM   53  C   UNK     0      11.892  12.184  12.236  0.00  0.00     0.139 C 
HETATM   54  O   UNK     0      12.019  10.959  12.390  0.00  0.00    -0.650 OA
BRANCH  53  55
HETATM   55  O   UNK     0      11.875  13.021  13.326  0.00  0.00    -0.776 OA
HETATM   56  H   UNK     0      12.246  12.818  14.224  0.00  0.00     0.167 HD
ENDBRANCH  53  55
ENDBRANCH  52  53
ENDBRANCH  51  52
ENDBRANCH  18  51
TORSDOF 16
ENDMDL
