MODEL 1
REMARK VINA RESULT:      -7.9      0.000      0.000
REMARK  16 active torsions:
REMARK  status: ('A' for Active; 'I' for Inactive)
REMARK    1  A    between atoms: C_6  and  C_7 
REMARK    2  A    between atoms: C_7  and  C_8 
REMARK    3  A    between atoms: C_8  and  C_9 
REMARK    4  A    between atoms: C_9  and  O_11 
REMARK    5  A    between atoms: C_16  and  C_17 
REMARK    6  A    between atoms: C_17  and  C_18 
REMARK    7  A    between atoms: C_18  and  C_19 
REMARK    8  A    between atoms: C_19  and  O_21 
REMARK    9  A    between atoms: C_28  and  C_29 
REMARK   10  A    between atoms: C_29  and  C_30 
REMARK   11  A    between atoms: C_30  and  C_31 
REMARK   12  A    between atoms: C_31  and  O_33 
REMARK   13  A    between atoms: C_42  and  C_43 
REMARK   14  A    between atoms: C_43  and  C_44 
REMARK   15  A    between atoms: C_44  and  C_45 
REMARK   16  A    between atoms: C_45  and  O_47 
ROOT
HETATM    1  C   UNK     0      -3.360  13.752 -16.375  0.00  0.00     0.051 C 
HETATM    2  C   UNK     0      -3.946  12.361 -16.507  0.00  0.00    -0.031 A 
HETATM    3  C   UNK     0      -5.079  11.945 -17.189  0.00  0.00     0.021 A 
HETATM    4  N   UNK     0      -5.238  10.613 -17.007  0.00  0.00    -0.361 N 
HETATM    5  C   UNK     0      -4.227  10.169 -16.233  0.00  0.00     0.022 A 
HETATM    6  C   UNK     0      -3.401  11.238 -15.899  0.00  0.00    -0.027 A 
HETATM    7  C   UNK     0      -3.888   8.771 -15.817  0.00  0.00     0.115 C 
HETATM    8  C   UNK     0      -4.003   7.696 -16.883  0.00  0.00     0.021 A 
HETATM    9  N   UNK     0      -3.732   7.787 -18.194  0.00  0.00    -0.361 N 
HETATM   10  C   UNK     0      -4.066   6.614 -18.773  0.00  0.00     0.022 A 
HETATM   11  C   UNK     0      -4.557   5.741 -17.807  0.00  0.00    -0.027 A 
HETATM   12  C   UNK     0      -4.519   6.416 -16.614  0.00  0.00    -0.031 A 
HETATM   13  C   UNK     0      -4.955   5.856 -15.278  0.00  0.00     0.051 C 
HETATM   14  C   UNK     0      -3.987   6.289 -20.262  0.00  0.00     0.115 C 
HETATM   15  C   UNK     0      -4.856   7.182 -21.134  0.00  0.00     0.021 A 
HETATM   16  N   UNK     0      -4.807   8.522 -21.244  0.00  0.00    -0.361 N 
HETATM   17  C   UNK     0      -5.782   8.932 -22.058  0.00  0.00     0.022 A 
HETATM   18  C   UNK     0      -6.495   7.803 -22.509  0.00  0.00    -0.027 A 
HETATM   19  C   UNK     0      -5.904   6.713 -21.924  0.00  0.00    -0.031 A 
HETATM   20  C   UNK     0      -6.343   5.281 -22.171  0.00  0.00     0.051 C 
HETATM   21  C   UNK     0      -6.197  10.332 -22.450  0.00  0.00     0.115 C 
HETATM   22  C   UNK     0      -6.047  11.420 -21.413  0.00  0.00     0.022 A 
HETATM   23  N   UNK     0      -6.305  11.357 -20.100  0.00  0.00    -0.361 N 
HETATM   24  C   UNK     0      -5.892  12.507 -19.531  0.00  0.00     0.021 A 
HETATM   25  C   UNK     0      -5.365  13.336 -20.503  0.00  0.00    -0.031 A 
HETATM   26  C   UNK     0      -4.813  14.740 -20.362  0.00  0.00     0.051 C 
HETATM   27  C   UNK     0      -5.453  12.662 -21.716  0.00  0.00    -0.027 A 
HETATM   28  C   UNK     0      -5.890  12.866 -18.055  0.00  0.00     0.115 C 
HETATM   29  H   UNK     0      -6.086  10.002 -17.395  0.00  0.00     0.165 HD
HETATM   30  H   UNK     0      -3.258   8.660 -18.706  0.00  0.00     0.165 HD
HETATM   31  H   UNK     0      -4.038   9.191 -20.775  0.00  0.00     0.165 HD
HETATM   32  H   UNK     0      -6.821  10.515 -19.569  0.00  0.00     0.165 HD
ENDROOT
BRANCH   6  33
HETATM   33  C   UNK     0      -2.151  11.272 -15.056  0.00  0.00     0.051 C 
BRANCH  33  34
HETATM   34  C   UNK     0      -2.489  11.548 -13.610  0.00  0.00     0.114 C 
BRANCH  34  35
HETATM   35  C   UNK     0      -2.347  10.265 -12.865  0.00  0.00     0.139 C 
HETATM   36  O   UNK     0      -3.351   9.740 -12.302  0.00  0.00    -0.650 OA
BRANCH  35  37
HETATM   37  O   UNK     0      -1.135   9.593 -12.755  0.00  0.00    -0.776 OA
HETATM   38  H   UNK     0      -0.328  10.014 -12.323  0.00  0.00     0.167 HD
ENDBRANCH  35  37
ENDBRANCH  34  35
ENDBRANCH  33  34
ENDBRANCH   6  33
BRANCH  27  39
HETATM   39  C   UNK     0      -5.046  13.269 -23.012  0.00  0.00     0.051 C 
BRANCH  39  40
HETATM   40  C   UNK     0      -3.761  12.876 -23.590  0.00  0.00     0.114 C 
BRANCH  40  41
HETATM   41  C   UNK     0      -2.620  12.534 -22.770  0.00  0.00     0.139 C 
HETATM   42  O   UNK     0      -1.849  13.374 -22.287  0.00  0.00    -0.650 OA
BRANCH  41  43
HETATM   43  O   UNK     0      -2.354  11.163 -22.495  0.00  0.00    -0.776 OA
HETATM   44  H   UNK     0      -2.844  10.512 -23.096  0.00  0.00     0.167 HD
ENDBRANCH  41  43
ENDBRANCH  40  41
ENDBRANCH  39  40
ENDBRANCH  27  39
BRANCH  11  45
HETATM   45  C   UNK     0      -5.043   4.327 -17.976  0.00  0.00     0.051 C 
BRANCH  45  46
HETATM   46  C   UNK     0      -4.016   3.294 -17.681  0.00  0.00     0.114 C 
BRANCH  46  47
HETATM   47  C   UNK     0      -4.006   2.342 -18.829  0.00  0.00     0.139 C 
HETATM   48  O   UNK     0      -4.354   2.755 -19.944  0.00  0.00    -0.650 OA
BRANCH  47  49
HETATM   49  O   UNK     0      -3.621   1.037 -18.655  0.00  0.00    -0.776 OA
HETATM   50  H   UNK     0      -2.668   0.783 -18.368  0.00  0.00     0.167 HD
ENDBRANCH  47  49
ENDBRANCH  46  47
ENDBRANCH  45  46
ENDBRANCH  11  45
BRANCH  18  51
HETATM   51  C   UNK     0      -7.661   7.764 -23.461  0.00  0.00     0.051 C 
BRANCH  51  52
HETATM   52  C   UNK     0      -8.902   8.048 -22.627  0.00  0.00     0.114 C 
BRANCH  52  53
HETATM   53  C   UNK     0     -10.106   7.418 -23.201  0.00  0.00     0.139 C 
HETATM   54  O   UNK     0     -10.298   6.200 -23.058  0.00  0.00    -0.650 OA
BRANCH  53  55
HETATM   55  O   UNK     0     -11.009   8.185 -23.896  0.00  0.00    -0.776 OA
HETATM   56  H   UNK     0     -10.806   9.022 -24.390  0.00  0.00     0.167 HD
ENDBRANCH  53  55
ENDBRANCH  52  53
ENDBRANCH  51  52
ENDBRANCH  18  51
TORSDOF 16
ENDMDL
MODEL 2
REMARK VINA RESULT:      -7.9      2.065      2.586
REMARK  16 active torsions:
REMARK  status: ('A' for Active; 'I' for Inactive)
REMARK    1  A    between atoms: C_6  and  C_7 
REMARK    2  A    between atoms: C_7  and  C_8 
REMARK    3  A    between atoms: C_8  and  C_9 
REMARK    4  A    between atoms: C_9  and  O_11 
REMARK    5  A    between atoms: C_16  and  C_17 
REMARK    6  A    between atoms: C_17  and  C_18 
REMARK    7  A    between atoms: C_18  and  C_19 
REMARK    8  A    between atoms: C_19  and  O_21 
REMARK    9  A    between atoms: C_28  and  C_29 
REMARK   10  A    between atoms: C_29  and  C_30 
REMARK   11  A    between atoms: C_30  and  C_31 
REMARK   12  A    between atoms: C_31  and  O_33 
REMARK   13  A    between atoms: C_42  and  C_43 
REMARK   14  A    between atoms: C_43  and  C_44 
REMARK   15  A    between atoms: C_44  and  C_45 
REMARK   16  A    between atoms: C_45  and  O_47 
ROOT
HETATM    1  C   UNK     0      -3.204  11.730 -15.063  0.00  0.00     0.051 C 
HETATM    2  C   UNK     0      -3.799  10.452 -15.621  0.00  0.00    -0.031 A 
HETATM    3  C   UNK     0      -4.968  10.268 -16.343  0.00  0.00     0.021 A 
HETATM    4  N   UNK     0      -5.120   8.949 -16.607  0.00  0.00    -0.361 N 
HETATM    5  C   UNK     0      -4.069   8.289 -16.077  0.00  0.00     0.022 A 
HETATM    6  C   UNK     0      -3.225   9.199 -15.450  0.00  0.00    -0.027 A 
HETATM    7  C   UNK     0      -3.712   6.838 -16.167  0.00  0.00     0.115 C 
HETATM    8  C   UNK     0      -3.886   6.177 -17.523  0.00  0.00     0.021 A 
HETATM    9  N   UNK     0      -3.685   6.702 -18.741  0.00  0.00    -0.361 N 
HETATM   10  C   UNK     0      -4.053   5.783 -19.660  0.00  0.00     0.022 A 
HETATM   11  C   UNK     0      -4.492   4.631 -19.015  0.00  0.00    -0.027 A 
HETATM   12  C   UNK     0      -4.390   4.872 -17.669  0.00  0.00    -0.031 A 
HETATM   13  C   UNK     0      -4.754   3.893 -16.575  0.00  0.00     0.051 C 
HETATM   14  C   UNK     0      -4.054   5.973 -21.174  0.00  0.00     0.115 C 
HETATM   15  C   UNK     0      -4.966   7.090 -21.654  0.00  0.00     0.021 A 
HETATM   16  N   UNK     0      -4.920   8.392 -21.314  0.00  0.00    -0.361 N 
HETATM   17  C   UNK     0      -5.937   9.033 -21.894  0.00  0.00     0.022 A 
HETATM   18  C   UNK     0      -6.675   8.106 -22.657  0.00  0.00    -0.027 A 
HETATM   19  C   UNK     0      -6.056   6.894 -22.499  0.00  0.00    -0.031 A 
HETATM   20  C   UNK     0      -6.511   5.619 -23.186  0.00  0.00     0.051 C 
HETATM   21  C   UNK     0      -6.370  10.477 -21.776  0.00  0.00     0.115 C 
HETATM   22  C   UNK     0      -6.162  11.161 -20.445  0.00  0.00     0.022 A 
HETATM   23  N   UNK     0      -6.349  10.661 -19.217  0.00  0.00    -0.361 N 
HETATM   24  C   UNK     0      -5.904  11.564 -18.320  0.00  0.00     0.021 A 
HETATM   25  C   UNK     0      -5.428  12.676 -18.987  0.00  0.00    -0.031 A 
HETATM   26  C   UNK     0      -4.867  13.962 -18.416  0.00  0.00     0.051 C 
HETATM   27  C   UNK     0      -5.583  12.442 -20.348  0.00  0.00    -0.027 A 
HETATM   28  C   UNK     0      -5.822  11.412 -16.811  0.00  0.00     0.115 C 
HETATM   29  H   UNK     0      -5.989   8.488 -17.132  0.00  0.00     0.165 HD
HETATM   30  H   UNK     0      -3.238   7.703 -18.957  0.00  0.00     0.165 HD
HETATM   31  H   UNK     0      -4.127   8.878 -20.689  0.00  0.00     0.165 HD
HETATM   32  H   UNK     0      -6.838   9.683 -18.970  0.00  0.00     0.165 HD
ENDROOT
BRANCH   6  33
HETATM   33  C   UNK     0      -1.931   8.972 -14.709  0.00  0.00     0.051 C 
BRANCH  33  34
HETATM   34  C   UNK     0      -0.748   9.163 -15.627  0.00  0.00     0.114 C 
BRANCH  34  35
HETATM   35  C   UNK     0      -0.281   7.810 -16.042  0.00  0.00     0.139 C 
HETATM   36  O   UNK     0      -0.448   7.416 -17.234  0.00  0.00    -0.650 OA
BRANCH  35  37
HETATM   37  O   UNK     0       0.348   6.932 -15.167  0.00  0.00    -0.776 OA
HETATM   38  H   UNK     0       0.555   7.185 -14.215  0.00  0.00     0.167 HD
ENDBRANCH  35  37
ENDBRANCH  34  35
ENDBRANCH  33  34
ENDBRANCH   6  33
BRANCH  27  39
HETATM   39  C   UNK     0      -5.245  13.452 -21.388  0.00  0.00     0.051 C 
BRANCH  39  40
HETATM   40  C   UNK     0      -6.338  14.060 -22.146  0.00  0.00     0.114 C 
BRANCH  40  41
HETATM   41  C   UNK     0      -7.315  14.928 -21.528  0.00  0.00     0.139 C 
HETATM   42  O   UNK     0      -7.125  15.515 -20.454  0.00  0.00    -0.650 OA
BRANCH  41  43
HETATM   43  O   UNK     0      -8.567  15.131 -22.175  0.00  0.00    -0.776 OA
HETATM   44  H   UNK     0      -8.702  14.573 -23.010  0.00  0.00     0.167 HD
ENDBRANCH  41  43
ENDBRANCH  40  41
ENDBRANCH  39  40
ENDBRANCH  27  39
BRANCH  11  45
HETATM   45  C   UNK     0      -4.989   3.345 -19.619  0.00  0.00     0.051 C 
BRANCH  45  46
HETATM   46  C   UNK     0      -3.921   2.500 -20.211  0.00  0.00     0.114 C 
BRANCH  46  47
HETATM   47  C   UNK     0      -3.576   1.456 -19.204  0.00  0.00     0.139 C 
HETATM   48  O   UNK     0      -2.645   1.676 -18.417  0.00  0.00    -0.650 OA
BRANCH  47  49
HETATM   49  O   UNK     0      -4.272   0.274 -19.151  0.00  0.00    -0.776 OA
HETATM   50  H   UNK     0      -4.804  -0.081 -19.954  0.00  0.00     0.167 HD
ENDBRANCH  47  49
ENDBRANCH  46  47
ENDBRANCH  45  46
ENDBRANCH  11  45
BRANCH  18  51
HETATM   51  C   UNK     0      -7.892   8.367 -23.507  0.00  0.00     0.051 C 
BRANCH  51  52
HETATM   52  C   UNK     0      -9.098   8.098 -22.619  0.00  0.00     0.114 C 
BRANCH  52  53
HETATM   53  C   UNK     0      -9.993   7.080 -23.202  0.00  0.00     0.139 C 
HETATM   54  O   UNK     0     -10.339   7.165 -24.392  0.00  0.00    -0.650 OA
BRANCH  53  55
HETATM   55  O   UNK     0     -10.442   6.043 -22.422  0.00  0.00    -0.776 OA
HETATM   56  H   UNK     0     -10.369   5.076 -22.636  0.00  0.00     0.167 HD
ENDBRANCH  53  55
ENDBRANCH  52  53
ENDBRANCH  51  52
ENDBRANCH  18  51
TORSDOF 16
ENDMDL
MODEL 3
REMARK VINA RESULT:      -7.8      0.809      1.002
REMARK  16 active torsions:
REMARK  status: ('A' for Active; 'I' for Inactive)
REMARK    1  A    between atoms: C_6  and  C_7 
REMARK    2  A    between atoms: C_7  and  C_8 
REMARK    3  A    between atoms: C_8  and  C_9 
REMARK    4  A    between atoms: C_9  and  O_11 
REMARK    5  A    between atoms: C_16  and  C_17 
REMARK    6  A    between atoms: C_17  and  C_18 
REMARK    7  A    between atoms: C_18  and  C_19 
REMARK    8  A    between atoms: C_19  and  O_21 
REMARK    9  A    between atoms: C_28  and  C_29 
REMARK   10  A    between atoms: C_29  and  C_30 
REMARK   11  A    between atoms: C_30  and  C_31 
REMARK   12  A    between atoms: C_31  and  O_33 
REMARK   13  A    between atoms: C_42  and  C_43 
REMARK   14  A    between atoms: C_43  and  C_44 
REMARK   15  A    between atoms: C_44  and  C_45 
REMARK   16  A    between atoms: C_45  and  O_47 
ROOT
HETATM    1  C   UNK     0      -3.369  13.673 -16.459  0.00  0.00     0.051 C 
HETATM    2  C   UNK     0      -3.960  12.282 -16.576  0.00  0.00    -0.031 A 
HETATM    3  C   UNK     0      -5.086  11.860 -17.265  0.00  0.00     0.021 A 
HETATM    4  N   UNK     0      -5.254  10.531 -17.063  0.00  0.00    -0.361 N 
HETATM    5  C   UNK     0      -4.255  10.096 -16.268  0.00  0.00     0.022 A 
HETATM    6  C   UNK     0      -3.429  11.167 -15.941  0.00  0.00    -0.027 A 
HETATM    7  C   UNK     0      -3.930   8.705 -15.823  0.00  0.00     0.115 C 
HETATM    8  C   UNK     0      -4.035   7.612 -16.873  0.00  0.00     0.021 A 
HETATM    9  N   UNK     0      -3.746   7.679 -18.182  0.00  0.00    -0.361 N 
HETATM   10  C   UNK     0      -4.078   6.498 -18.745  0.00  0.00     0.022 A 
HETATM   11  C   UNK     0      -4.586   5.644 -17.771  0.00  0.00    -0.027 A 
HETATM   12  C   UNK     0      -4.561   6.339 -16.589  0.00  0.00    -0.031 A 
HETATM   13  C   UNK     0      -5.017   5.804 -15.250  0.00  0.00     0.051 C 
HETATM   14  C   UNK     0      -3.980   6.148 -20.227  0.00  0.00     0.115 C 
HETATM   15  C   UNK     0      -4.833   7.029 -21.126  0.00  0.00     0.021 A 
HETATM   16  N   UNK     0      -4.775   8.367 -21.258  0.00  0.00    -0.361 N 
HETATM   17  C   UNK     0      -5.737   8.767 -22.092  0.00  0.00     0.022 A 
HETATM   18  C   UNK     0      -6.450   7.634 -22.533  0.00  0.00    -0.027 A 
HETATM   19  C   UNK     0      -5.872   6.552 -21.922  0.00  0.00    -0.031 A 
HETATM   20  C   UNK     0      -6.315   5.118 -22.150  0.00  0.00     0.051 C 
HETATM   21  C   UNK     0      -6.140  10.162 -22.513  0.00  0.00     0.115 C 
HETATM   22  C   UNK     0      -5.999  11.267 -21.493  0.00  0.00     0.022 A 
HETATM   23  N   UNK     0      -6.275  11.228 -20.183  0.00  0.00    -0.361 N 
HETATM   24  C   UNK     0      -5.864  12.386 -19.628  0.00  0.00     0.021 A 
HETATM   25  C   UNK     0      -5.320  13.195 -20.606  0.00  0.00    -0.031 A 
HETATM   26  C   UNK     0      -4.763  14.598 -20.482  0.00  0.00     0.051 C 
HETATM   27  C   UNK     0      -5.395  12.501 -21.809  0.00  0.00    -0.027 A 
HETATM   28  C   UNK     0      -5.881  12.770 -18.158  0.00  0.00     0.115 C 
HETATM   29  H   UNK     0      -6.100   9.918 -17.452  0.00  0.00     0.165 HD
HETATM   30  H   UNK     0      -3.261   8.541 -18.702  0.00  0.00     0.165 HD
HETATM   31  H   UNK     0      -4.010   9.040 -20.789  0.00  0.00     0.165 HD
HETATM   32  H   UNK     0      -6.802  10.398 -19.644  0.00  0.00     0.165 HD
ENDROOT
BRANCH   6  33
HETATM   33  C   UNK     0      -2.191  11.209 -15.082  0.00  0.00     0.051 C 
BRANCH  33  34
HETATM   34  C   UNK     0      -2.544  11.540 -13.651  0.00  0.00     0.114 C 
BRANCH  34  35
HETATM   35  C   UNK     0      -2.431  10.280 -12.861  0.00  0.00     0.139 C 
HETATM   36  O   UNK     0      -3.463   9.753 -12.352  0.00  0.00    -0.650 OA
BRANCH  35  37
HETATM   37  O   UNK     0      -1.219   9.635 -12.650  0.00  0.00    -0.776 OA
HETATM   38  H   UNK     0      -0.413   9.807 -13.229  0.00  0.00     0.167 HD
ENDBRANCH  35  37
ENDBRANCH  34  35
ENDBRANCH  33  34
ENDBRANCH   6  33
BRANCH  27  39
HETATM   39  C   UNK     0      -4.968  13.084 -23.109  0.00  0.00     0.051 C 
BRANCH  39  40
HETATM   40  C   UNK     0      -3.687  12.659 -23.674  0.00  0.00     0.114 C 
BRANCH  40  41
HETATM   41  C   UNK     0      -3.210  13.139 -24.951  0.00  0.00     0.139 C 
HETATM   42  O   UNK     0      -3.634  12.725 -26.039  0.00  0.00    -0.650 OA
BRANCH  41  43
HETATM   43  O   UNK     0      -2.199  14.141 -24.979  0.00  0.00    -0.776 OA
HETATM   44  H   UNK     0      -1.254  13.782 -25.043  0.00  0.00     0.167 HD
ENDBRANCH  41  43
ENDBRANCH  40  41
ENDBRANCH  39  40
ENDBRANCH  27  39
BRANCH  11  45
HETATM   45  C   UNK     0      -5.076   4.229 -17.922  0.00  0.00     0.051 C 
BRANCH  45  46
HETATM   46  C   UNK     0      -4.067   3.197 -17.574  0.00  0.00     0.114 C 
BRANCH  46  47
HETATM   47  C   UNK     0      -3.774   2.428 -18.818  0.00  0.00     0.139 C 
HETATM   48  O   UNK     0      -2.613   2.044 -19.018  0.00  0.00    -0.650 OA
BRANCH  47  49
HETATM   49  O   UNK     0      -4.767   2.153 -19.724  0.00  0.00    -0.776 OA
HETATM   50  H   UNK     0      -5.209   1.228 -19.784  0.00  0.00     0.167 HD
ENDBRANCH  47  49
ENDBRANCH  46  47
ENDBRANCH  45  46
ENDBRANCH  11  45
BRANCH  18  51
HETATM   51  C   UNK     0      -7.604   7.584 -23.500  0.00  0.00     0.051 C 
BRANCH  51  52
HETATM   52  C   UNK     0      -8.858   7.846 -22.681  0.00  0.00     0.114 C 
BRANCH  52  53
HETATM   53  C   UNK     0     -10.012   7.073 -23.180  0.00  0.00     0.139 C 
HETATM   54  O   UNK     0     -10.321   5.999 -22.640  0.00  0.00    -0.650 OA
BRANCH  53  55
HETATM   55  O   UNK     0     -10.737   7.547 -24.246  0.00  0.00    -0.776 OA
HETATM   56  H   UNK     0     -11.389   7.028 -24.786  0.00  0.00     0.167 HD
ENDBRANCH  53  55
ENDBRANCH  52  53
ENDBRANCH  51  52
ENDBRANCH  18  51
TORSDOF 16
ENDMDL
MODEL 4
REMARK VINA RESULT:      -7.7      2.672      7.884
REMARK  16 active torsions:
REMARK  status: ('A' for Active; 'I' for Inactive)
REMARK    1  A    between atoms: C_6  and  C_7 
REMARK    2  A    between atoms: C_7  and  C_8 
REMARK    3  A    between atoms: C_8  and  C_9 
REMARK    4  A    between atoms: C_9  and  O_11 
REMARK    5  A    between atoms: C_16  and  C_17 
REMARK    6  A    between atoms: C_17  and  C_18 
REMARK    7  A    between atoms: C_18  and  C_19 
REMARK    8  A    between atoms: C_19  and  O_21 
REMARK    9  A    between atoms: C_28  and  C_29 
REMARK   10  A    between atoms: C_29  and  C_30 
REMARK   11  A    between atoms: C_30  and  C_31 
REMARK   12  A    between atoms: C_31  and  O_33 
REMARK   13  A    between atoms: C_42  and  C_43 
REMARK   14  A    between atoms: C_43  and  C_44 
REMARK   15  A    between atoms: C_44  and  C_45 
REMARK   16  A    between atoms: C_45  and  O_47 
ROOT
HETATM    1  C   UNK     0      -4.266   1.259 -22.995  0.00  0.00     0.051 C 
HETATM    2  C   UNK     0      -3.666   2.518 -22.402  0.00  0.00    -0.031 A 
HETATM    3  C   UNK     0      -3.968   3.844 -22.667  0.00  0.00     0.021 A 
HETATM    4  N   UNK     0      -3.157   4.637 -21.926  0.00  0.00    -0.361 N 
HETATM    5  C   UNK     0      -2.352   3.844 -21.189  0.00  0.00     0.022 A 
HETATM    6  C   UNK     0      -2.642   2.512 -21.464  0.00  0.00    -0.027 A 
HETATM    7  C   UNK     0      -1.347   4.217 -20.144  0.00  0.00     0.115 C 
HETATM    8  C   UNK     0      -1.754   5.303 -19.163  0.00  0.00     0.021 A 
HETATM    9  N   UNK     0      -2.966   5.546 -18.640  0.00  0.00    -0.361 N 
HETATM   10  C   UNK     0      -2.882   6.665 -17.890  0.00  0.00     0.022 A 
HETATM   11  C   UNK     0      -1.578   7.151 -17.923  0.00  0.00    -0.027 A 
HETATM   12  C   UNK     0      -0.862   6.297 -18.724  0.00  0.00    -0.031 A 
HETATM   13  C   UNK     0       0.610   6.429 -19.046  0.00  0.00     0.051 C 
HETATM   14  C   UNK     0      -4.033   7.348 -17.158  0.00  0.00     0.115 C 
HETATM   15  C   UNK     0      -5.150   7.822 -18.074  0.00  0.00     0.021 A 
HETATM   16  N   UNK     0      -5.893   7.079 -18.917  0.00  0.00    -0.361 N 
HETATM   17  C   UNK     0      -6.719   7.878 -19.594  0.00  0.00     0.022 A 
HETATM   18  C   UNK     0      -6.512   9.205 -19.167  0.00  0.00    -0.027 A 
HETATM   19  C   UNK     0      -5.528   9.156 -18.214  0.00  0.00    -0.031 A 
HETATM   20  C   UNK     0      -5.021  10.372 -17.460  0.00  0.00     0.051 C 
HETATM   21  C   UNK     0      -7.698   7.552 -20.700  0.00  0.00     0.115 C 
HETATM   22  C   UNK     0      -7.326   6.444 -21.656  0.00  0.00     0.022 A 
HETATM   23  N   UNK     0      -6.127   6.176 -22.190  0.00  0.00    -0.361 N 
HETATM   24  C   UNK     0      -6.216   5.015 -22.869  0.00  0.00     0.021 A 
HETATM   25  C   UNK     0      -7.506   4.529 -22.780  0.00  0.00    -0.031 A 
HETATM   26  C   UNK     0      -8.102   3.285 -23.406  0.00  0.00     0.051 C 
HETATM   27  C   UNK     0      -8.235   5.426 -22.008  0.00  0.00    -0.027 A 
HETATM   28  C   UNK     0      -5.098   4.257 -23.566  0.00  0.00     0.115 C 
HETATM   29  H   UNK     0      -3.132   5.751 -21.959  0.00  0.00     0.165 HD
HETATM   30  H   UNK     0      -3.871   4.901 -18.758  0.00  0.00     0.165 HD
HETATM   31  H   UNK     0      -5.867   5.961 -19.001  0.00  0.00     0.165 HD
HETATM   32  H   UNK     0      -5.216   6.827 -22.128  0.00  0.00     0.165 HD
ENDROOT
BRANCH   6  33
HETATM   33  C   UNK     0      -2.026   1.251 -20.913  0.00  0.00     0.051 C 
BRANCH  33  34
HETATM   34  C   UNK     0      -1.931   1.317 -19.407  0.00  0.00     0.114 C 
BRANCH  34  35
HETATM   35  C   UNK     0      -3.322   1.367 -18.873  0.00  0.00     0.139 C 
HETATM   36  O   UNK     0      -3.703   2.354 -18.179  0.00  0.00    -0.650 OA
BRANCH  35  37
HETATM   37  O   UNK     0      -4.251   0.360 -19.107  0.00  0.00    -0.776 OA
HETATM   38  H   UNK     0      -4.263  -0.492 -18.570  0.00  0.00     0.167 HD
ENDBRANCH  35  37
ENDBRANCH  34  35
ENDBRANCH  33  34
ENDBRANCH   6  33
BRANCH  27  39
HETATM   39  C   UNK     0      -9.693   5.275 -21.749  0.00  0.00     0.051 C 
BRANCH  39  40
HETATM   40  C   UNK     0     -10.609   6.241 -22.353  0.00  0.00     0.114 C 
BRANCH  40  41
HETATM   41  C   UNK     0     -10.237   7.048 -23.494  0.00  0.00     0.139 C 
HETATM   42  O   UNK     0     -10.179   6.610 -24.651  0.00  0.00    -0.650 OA
BRANCH  41  43
HETATM   43  O   UNK     0      -9.916   8.420 -23.295  0.00  0.00    -0.776 OA
HETATM   44  H   UNK     0      -9.928   8.717 -22.327  0.00  0.00     0.167 HD
ENDBRANCH  41  43
ENDBRANCH  40  41
ENDBRANCH  39  40
ENDBRANCH  27  39
BRANCH  11  45
HETATM   45  C   UNK     0      -1.007   8.363 -17.237  0.00  0.00     0.051 C 
BRANCH  45  46
HETATM   46  C   UNK     0      -0.685   8.152 -15.803  0.00  0.00     0.114 C 
BRANCH  46  47
HETATM   47  C   UNK     0      -1.152   9.359 -15.063  0.00  0.00     0.139 C 
HETATM   48  O   UNK     0      -2.367   9.599 -15.027  0.00  0.00    -0.650 OA
BRANCH  47  49
HETATM   49  O   UNK     0      -0.257  10.189 -14.437  0.00  0.00    -0.776 OA
HETATM   50  H   UNK     0       0.611  10.498 -14.892  0.00  0.00     0.167 HD
ENDBRANCH  47  49
ENDBRANCH  46  47
ENDBRANCH  45  46
ENDBRANCH  11  45
BRANCH  18  51
HETATM   51  C   UNK     0      -7.228  10.449 -19.626  0.00  0.00     0.051 C 
BRANCH  51  52
HETATM   52  C   UNK     0      -6.490  10.932 -20.865  0.00  0.00     0.114 C 
BRANCH  52  53
HETATM   53  C   UNK     0      -7.221  10.602 -22.104  0.00  0.00     0.139 C 
HETATM   54  O   UNK     0      -8.395  10.975 -22.251  0.00  0.00    -0.650 OA
BRANCH  53  55
HETATM   55  O   UNK     0      -6.595   9.877 -23.089  0.00  0.00    -0.776 OA
HETATM   56  H   UNK     0      -5.623   9.884 -23.292  0.00  0.00     0.167 HD
ENDBRANCH  53  55
ENDBRANCH  52  53
ENDBRANCH  51  52
ENDBRANCH  18  51
TORSDOF 16
ENDMDL
MODEL 5
REMARK VINA RESULT:      -7.6     23.218     27.400
REMARK  16 active torsions:
REMARK  status: ('A' for Active; 'I' for Inactive)
REMARK    1  A    between atoms: C_6  and  C_7 
REMARK    2  A    between atoms: C_7  and  C_8 
REMARK    3  A    between atoms: C_8  and  C_9 
REMARK    4  A    between atoms: C_9  and  O_11 
REMARK    5  A    between atoms: C_16  and  C_17 
REMARK    6  A    between atoms: C_17  and  C_18 
REMARK    7  A    between atoms: C_18  and  C_19 
REMARK    8  A    between atoms: C_19  and  O_21 
REMARK    9  A    between atoms: C_28  and  C_29 
REMARK   10  A    between atoms: C_29  and  C_30 
REMARK   11  A    between atoms: C_30  and  C_31 
REMARK   12  A    between atoms: C_31  and  O_33 
REMARK   13  A    between atoms: C_42  and  C_43 
REMARK   14  A    between atoms: C_43  and  C_44 
REMARK   15  A    between atoms: C_44  and  C_45 
REMARK   16  A    between atoms: C_45  and  O_47 
ROOT
HETATM    1  C   UNK     0       4.525 -14.702 -11.714  0.00  0.00     0.051 C 
HETATM    2  C   UNK     0       4.545 -14.117 -10.316  0.00  0.00    -0.031 A 
HETATM    3  C   UNK     0       5.489 -14.268  -9.313  0.00  0.00     0.021 A 
HETATM    4  N   UNK     0       5.080 -13.588  -8.216  0.00  0.00    -0.361 N 
HETATM    5  C   UNK     0       3.900 -13.000  -8.501  0.00  0.00     0.022 A 
HETATM    6  C   UNK     0       3.535 -13.312  -9.806  0.00  0.00    -0.027 A 
HETATM    7  C   UNK     0       3.076 -12.065  -7.671  0.00  0.00     0.115 C 
HETATM    8  C   UNK     0       3.827 -10.983  -6.915  0.00  0.00     0.021 A 
HETATM    9  N   UNK     0       4.921 -10.304  -7.295  0.00  0.00    -0.361 N 
HETATM   10  C   UNK     0       5.296  -9.508  -6.271  0.00  0.00     0.022 A 
HETATM   11  C   UNK     0       4.415  -9.671  -5.207  0.00  0.00    -0.027 A 
HETATM   12  C   UNK     0       3.487 -10.599  -5.606  0.00  0.00    -0.031 A 
HETATM   13  C   UNK     0       2.326 -11.090  -4.770  0.00  0.00     0.051 C 
HETATM   14  C   UNK     0       6.525  -8.604  -6.236  0.00  0.00     0.115 C 
HETATM   15  C   UNK     0       7.842  -9.350  -6.383  0.00  0.00     0.021 A 
HETATM   16  N   UNK     0       8.231 -10.136  -7.405  0.00  0.00    -0.361 N 
HETATM   17  C   UNK     0       9.424 -10.663  -7.123  0.00  0.00     0.022 A 
HETATM   18  C   UNK     0       9.838 -10.189  -5.862  0.00  0.00    -0.027 A 
HETATM   19  C   UNK     0       8.839  -9.367  -5.410  0.00  0.00    -0.031 A 
HETATM   20  C   UNK     0       8.896  -8.614  -4.093  0.00  0.00     0.051 C 
HETATM   21  C   UNK     0      10.256 -11.657  -7.901  0.00  0.00     0.115 C 
HETATM   22  C   UNK     0       9.520 -12.713  -8.692  0.00  0.00     0.022 A 
HETATM   23  N   UNK     0       8.427 -13.402  -8.341  0.00  0.00    -0.361 N 
HETATM   24  C   UNK     0       8.026 -14.130  -9.403  0.00  0.00     0.021 A 
HETATM   25  C   UNK     0       8.889 -13.912 -10.461  0.00  0.00    -0.031 A 
HETATM   26  C   UNK     0       8.877 -14.530 -11.843  0.00  0.00     0.051 C 
HETATM   27  C   UNK     0       9.853 -13.009 -10.030  0.00  0.00    -0.027 A 
HETATM   28  C   UNK     0       6.786 -14.999  -9.520  0.00  0.00     0.115 C 
HETATM   29  H   UNK     0       5.608 -13.561  -7.234  0.00  0.00     0.165 HD
HETATM   30  H   UNK     0       5.402 -10.347  -8.303  0.00  0.00     0.165 HD
HETATM   31  H   UNK     0       7.673 -10.286  -8.366  0.00  0.00     0.165 HD
HETATM   32  H   UNK     0       7.952 -13.415  -7.326  0.00  0.00     0.165 HD
ENDROOT
BRANCH   6  33
HETATM   33  C   UNK     0       2.313 -12.911 -10.595  0.00  0.00     0.051 C 
BRANCH  33  34
HETATM   34  C   UNK     0       2.687 -11.983 -11.725  0.00  0.00     0.114 C 
BRANCH  34  35
HETATM   35  C   UNK     0       2.882 -10.624 -11.142  0.00  0.00     0.139 C 
HETATM   36  O   UNK     0       3.960  -9.993 -11.343  0.00  0.00    -0.650 OA
BRANCH  35  37
HETATM   37  O   UNK     0       1.913  -9.995 -10.369  0.00  0.00    -0.776 OA
HETATM   38  H   UNK     0       1.591  -9.063 -10.571  0.00  0.00     0.167 HD
ENDBRANCH  35  37
ENDBRANCH  34  35
ENDBRANCH  33  34
ENDBRANCH   6  33
BRANCH  27  39
HETATM   39  C   UNK     0      11.001 -12.583 -10.876  0.00  0.00     0.051 C 
BRANCH  39  40
HETATM   40  C   UNK     0      11.053 -11.193 -11.328  0.00  0.00     0.114 C 
BRANCH  40  41
HETATM   41  C   UNK     0      12.301 -10.490 -11.517  0.00  0.00     0.139 C 
HETATM   42  O   UNK     0      12.870 -10.388 -12.612  0.00  0.00    -0.650 OA
BRANCH  41  43
HETATM   43  O   UNK     0      12.925  -9.876 -10.394  0.00  0.00    -0.776 OA
HETATM   44  H   UNK     0      12.836 -10.396  -9.529  0.00  0.00     0.167 HD
ENDBRANCH  41  43
ENDBRANCH  40  41
ENDBRANCH  39  40
ENDBRANCH  27  39
BRANCH  11  45
HETATM   45  C   UNK     0       4.423  -8.993  -3.863  0.00  0.00     0.051 C 
BRANCH  45  46
HETATM   46  C   UNK     0       3.563  -7.784  -3.789  0.00  0.00     0.114 C 
BRANCH  46  47
HETATM   47  C   UNK     0       4.451  -6.629  -3.473  0.00  0.00     0.139 C 
HETATM   48  O   UNK     0       4.902  -6.525  -2.324  0.00  0.00    -0.650 OA
BRANCH  47  49
HETATM   49  O   UNK     0       4.762  -5.699  -4.433  0.00  0.00    -0.776 OA
HETATM   50  H   UNK     0       5.054  -4.744  -4.192  0.00  0.00     0.167 HD
ENDBRANCH  47  49
ENDBRANCH  46  47
ENDBRANCH  45  46
ENDBRANCH  11  45
BRANCH  18  51
HETATM   51  C   UNK     0      11.125 -10.487  -5.137  0.00  0.00     0.051 C 
BRANCH  51  52
HETATM   52  C   UNK     0      12.181  -9.582  -5.753  0.00  0.00     0.114 C 
BRANCH  52  53
HETATM   53  C   UNK     0      12.665  -8.571  -4.793  0.00  0.00     0.139 C 
HETATM   54  O   UNK     0      13.315  -7.593  -5.196  0.00  0.00    -0.650 OA
BRANCH  53  55
HETATM   55  O   UNK     0      12.396  -8.720  -3.455  0.00  0.00    -0.776 OA
HETATM   56  H   UNK     0      12.715  -8.128  -2.725  0.00  0.00     0.167 HD
ENDBRANCH  53  55
ENDBRANCH  52  53
ENDBRANCH  51  52
ENDBRANCH  18  51
TORSDOF 16
ENDMDL
MODEL 6
REMARK VINA RESULT:      -7.5     22.994     27.747
REMARK  16 active torsions:
REMARK  status: ('A' for Active; 'I' for Inactive)
REMARK    1  A    between atoms: C_6  and  C_7 
REMARK    2  A    between atoms: C_7  and  C_8 
REMARK    3  A    between atoms: C_8  and  C_9 
REMARK    4  A    between atoms: C_9  and  O_11 
REMARK    5  A    between atoms: C_16  and  C_17 
REMARK    6  A    between atoms: C_17  and  C_18 
REMARK    7  A    between atoms: C_18  and  C_19 
REMARK    8  A    between atoms: C_19  and  O_21 
REMARK    9  A    between atoms: C_28  and  C_29 
REMARK   10  A    between atoms: C_29  and  C_30 
REMARK   11  A    between atoms: C_30  and  C_31 
REMARK   12  A    between atoms: C_31  and  O_33 
REMARK   13  A    between atoms: C_42  and  C_43 
REMARK   14  A    between atoms: C_43  and  C_44 
REMARK   15  A    between atoms: C_44  and  C_45 
REMARK   16  A    between atoms: C_45  and  O_47 
ROOT
HETATM    1  C   UNK     0       3.899 -14.008 -11.007  0.00  0.00     0.051 C 
HETATM    2  C   UNK     0       4.161 -13.433  -9.630  0.00  0.00    -0.031 A 
HETATM    3  C   UNK     0       5.091 -13.819  -8.677  0.00  0.00     0.021 A 
HETATM    4  N   UNK     0       4.947 -13.040  -7.579  0.00  0.00    -0.361 N 
HETATM    5  C   UNK     0       3.952 -12.160  -7.815  0.00  0.00     0.022 A 
HETATM    6  C   UNK     0       3.437 -12.379  -9.088  0.00  0.00    -0.027 A 
HETATM    7  C   UNK     0       3.462 -11.028  -6.966  0.00  0.00     0.115 C 
HETATM    8  C   UNK     0       4.520 -10.179  -6.285  0.00  0.00     0.021 A 
HETATM    9  N   UNK     0       5.730  -9.823  -6.745  0.00  0.00    -0.361 N 
HETATM   10  C   UNK     0       6.367  -9.144  -5.767  0.00  0.00     0.022 A 
HETATM   11  C   UNK     0       5.541  -9.052  -4.651  0.00  0.00    -0.027 A 
HETATM   12  C   UNK     0       4.376  -9.701  -4.970  0.00  0.00    -0.031 A 
HETATM   13  C   UNK     0       3.180  -9.851  -4.057  0.00  0.00     0.051 C 
HETATM   14  C   UNK     0       7.793  -8.604  -5.826  0.00  0.00     0.115 C 
HETATM   15  C   UNK     0       8.850  -9.678  -6.026  0.00  0.00     0.021 A 
HETATM   16  N   UNK     0       8.950 -10.553  -7.045  0.00  0.00    -0.361 N 
HETATM   17  C   UNK     0       9.975 -11.377  -6.816  0.00  0.00     0.022 A 
HETATM   18  C   UNK     0      10.577 -11.017  -5.594  0.00  0.00    -0.027 A 
HETATM   19  C   UNK     0       9.864  -9.951  -5.110  0.00  0.00    -0.031 A 
HETATM   20  C   UNK     0      10.202  -9.224  -3.821  0.00  0.00     0.051 C 
HETATM   21  C   UNK     0      10.460 -12.569  -7.610  0.00  0.00     0.115 C 
HETATM   22  C   UNK     0       9.421 -13.397  -8.329  0.00  0.00     0.022 A 
HETATM   23  N   UNK     0       8.207 -13.763  -7.898  0.00  0.00    -0.361 N 
HETATM   24  C   UNK     0       7.562 -14.370  -8.914  0.00  0.00     0.021 A 
HETATM   25  C   UNK     0       8.384 -14.404 -10.024  0.00  0.00    -0.031 A 
HETATM   26  C   UNK     0       8.122 -15.014 -11.386  0.00  0.00     0.051 C 
HETATM   27  C   UNK     0       9.580 -13.788  -9.674  0.00  0.00    -0.027 A 
HETATM   28  C   UNK     0       6.129 -14.874  -8.936  0.00  0.00     0.115 C 
HETATM   29  H   UNK     0       5.522 -13.144  -6.630  0.00  0.00     0.165 HD
HETATM   30  H   UNK     0       6.118 -10.006  -7.777  0.00  0.00     0.165 HD
HETATM   31  H   UNK     0       8.315 -10.559  -7.969  0.00  0.00     0.165 HD
HETATM   32  H   UNK     0       7.810 -13.635  -6.857  0.00  0.00     0.165 HD
ENDROOT
BRANCH   6  33
HETATM   33  C   UNK     0       2.321 -11.675  -9.817  0.00  0.00     0.051 C 
BRANCH  33  34
HETATM   34  C   UNK     0       2.806 -10.372 -10.407  0.00  0.00     0.114 C 
BRANCH  34  35
HETATM   35  C   UNK     0       3.004 -10.590 -11.869  0.00  0.00     0.139 C 
HETATM   36  O   UNK     0       2.331 -11.472 -12.478  0.00  0.00    -0.650 OA
BRANCH  35  37
HETATM   37  O   UNK     0       3.911  -9.854 -12.621  0.00  0.00    -0.776 OA
HETATM   38  H   UNK     0       3.636  -9.035 -13.139  0.00  0.00     0.167 HD
ENDBRANCH  35  37
ENDBRANCH  34  35
ENDBRANCH  33  34
ENDBRANCH   6  33
BRANCH  27  39
HETATM   39  C   UNK     0      10.745 -13.698 -10.596  0.00  0.00     0.051 C 
BRANCH  39  40
HETATM   40  C   UNK     0      11.005 -12.422 -11.262  0.00  0.00     0.114 C 
BRANCH  40  41
HETATM   41  C   UNK     0      10.073 -11.319 -11.206  0.00  0.00     0.139 C 
HETATM   42  O   UNK     0       9.126 -11.183 -11.992  0.00  0.00    -0.650 OA
BRANCH  41  43
HETATM   43  O   UNK     0      10.237 -10.326 -10.198  0.00  0.00    -0.776 OA
HETATM   44  H   UNK     0      10.951  -9.637 -10.401  0.00  0.00     0.167 HD
ENDBRANCH  41  43
ENDBRANCH  40  41
ENDBRANCH  39  40
ENDBRANCH  27  39
BRANCH  11  45
HETATM   45  C   UNK     0       5.814  -8.384  -3.330  0.00  0.00     0.051 C 
BRANCH  45  46
HETATM   46  C   UNK     0       6.017  -6.916  -3.424  0.00  0.00     0.114 C 
BRANCH  46  47
HETATM   47  C   UNK     0       4.667  -6.286  -3.482  0.00  0.00     0.139 C 
HETATM   48  O   UNK     0       3.779  -6.719  -2.734  0.00  0.00    -0.650 OA
BRANCH  47  49
HETATM   49  O   UNK     0       4.410  -5.251  -4.345  0.00  0.00    -0.776 OA
HETATM   50  H   UNK     0       5.163  -4.739  -4.821  0.00  0.00     0.167 HD
ENDBRANCH  47  49
ENDBRANCH  46  47
ENDBRANCH  45  46
ENDBRANCH  11  45
BRANCH  18  51
HETATM   51  C   UNK     0      11.779 -11.641  -4.934  0.00  0.00     0.051 C 
BRANCH  51  52
HETATM   52  C   UNK     0      11.296 -12.943  -4.313  0.00  0.00     0.114 C 
BRANCH  52  53
HETATM   53  C   UNK     0      10.541 -12.711  -3.067  0.00  0.00     0.139 C 
HETATM   54  O   UNK     0      11.123 -12.280  -2.059  0.00  0.00    -0.650 OA
BRANCH  53  55
HETATM   55  O   UNK     0       9.194 -12.977  -3.030  0.00  0.00    -0.776 OA
HETATM   56  H   UNK     0       8.713 -13.637  -3.594  0.00  0.00     0.167 HD
ENDBRANCH  53  55
ENDBRANCH  52  53
ENDBRANCH  51  52
ENDBRANCH  18  51
TORSDOF 16
ENDMDL
MODEL 7
REMARK VINA RESULT:      -7.5     30.786     36.479
REMARK  16 active torsions:
REMARK  status: ('A' for Active; 'I' for Inactive)
REMARK    1  A    between atoms: C_6  and  C_7 
REMARK    2  A    between atoms: C_7  and  C_8 
REMARK    3  A    between atoms: C_8  and  C_9 
REMARK    4  A    between atoms: C_9  and  O_11 
REMARK    5  A    between atoms: C_16  and  C_17 
REMARK    6  A    between atoms: C_17  and  C_18 
REMARK    7  A    between atoms: C_18  and  C_19 
REMARK    8  A    between atoms: C_19  and  O_21 
REMARK    9  A    between atoms: C_28  and  C_29 
REMARK   10  A    between atoms: C_29  and  C_30 
REMARK   11  A    between atoms: C_30  and  C_31 
REMARK   12  A    between atoms: C_31  and  O_33 
REMARK   13  A    between atoms: C_42  and  C_43 
REMARK   14  A    between atoms: C_43  and  C_44 
REMARK   15  A    between atoms: C_44  and  C_45 
REMARK   16  A    between atoms: C_45  and  O_47 
ROOT
HETATM    1  C   UNK     0      -4.723  -9.963   7.772  0.00  0.00     0.051 C 
HETATM    2  C   UNK     0      -3.929  -9.167   8.786  0.00  0.00    -0.031 A 
HETATM    3  C   UNK     0      -3.464  -9.548  10.035  0.00  0.00     0.021 A 
HETATM    4  N   UNK     0      -2.827  -8.499  10.608  0.00  0.00    -0.361 N 
HETATM    5  C   UNK     0      -2.868  -7.461   9.748  0.00  0.00     0.022 A 
HETATM    6  C   UNK     0      -3.553  -7.843   8.599  0.00  0.00    -0.027 A 
HETATM    7  C   UNK     0      -2.236  -6.108   9.858  0.00  0.00     0.115 C 
HETATM    8  C   UNK     0      -0.813  -6.062  10.387  0.00  0.00     0.021 A 
HETATM    9  N   UNK     0       0.182  -6.940  10.188  0.00  0.00    -0.361 N 
HETATM   10  C   UNK     0       1.243  -6.546  10.923  0.00  0.00     0.022 A 
HETATM   11  C   UNK     0       0.926  -5.376  11.607  0.00  0.00    -0.027 A 
HETATM   12  C   UNK     0      -0.368  -5.066  11.274  0.00  0.00    -0.031 A 
HETATM   13  C   UNK     0      -1.137  -3.866  11.779  0.00  0.00     0.051 C 
HETATM   14  C   UNK     0       2.574  -7.281  11.052  0.00  0.00     0.115 C 
HETATM   15  C   UNK     0       2.451  -8.679  11.637  0.00  0.00     0.021 A 
HETATM   16  N   UNK     0       1.727  -9.708  11.161  0.00  0.00    -0.361 N 
HETATM   17  C   UNK     0       1.828 -10.741  12.000  0.00  0.00     0.022 A 
HETATM   18  C   UNK     0       2.666 -10.370  13.070  0.00  0.00    -0.027 A 
HETATM   19  C   UNK     0       3.051  -9.077  12.830  0.00  0.00    -0.031 A 
HETATM   20  C   UNK     0       3.995  -8.297  13.728  0.00  0.00     0.051 C 
HETATM   21  C   UNK     0       1.156 -12.095  11.960  0.00  0.00     0.115 C 
HETATM   22  C   UNK     0      -0.244 -12.163  11.396  0.00  0.00     0.022 A 
HETATM   23  N   UNK     0      -1.253 -11.300  11.574  0.00  0.00    -0.361 N 
HETATM   24  C   UNK     0      -2.272 -11.670  10.772  0.00  0.00     0.021 A 
HETATM   25  C   UNK     0      -1.914 -12.804  10.068  0.00  0.00    -0.031 A 
HETATM   26  C   UNK     0      -2.732 -13.611   9.081  0.00  0.00     0.051 C 
HETATM   27  C   UNK     0      -0.620 -13.138  10.451  0.00  0.00    -0.027 A 
HETATM   28  C   UNK     0      -3.593 -10.951  10.556  0.00  0.00     0.115 C 
HETATM   29  H   UNK     0      -2.388  -8.488  11.633  0.00  0.00     0.165 HD
HETATM   30  H   UNK     0       0.155  -7.813   9.490  0.00  0.00     0.165 HD
HETATM   31  H   UNK     0       1.170  -9.723  10.187  0.00  0.00     0.165 HD
HETATM   32  H   UNK     0      -1.272 -10.447  12.300  0.00  0.00     0.165 HD
ENDROOT
BRANCH   6  33
HETATM   33  C   UNK     0      -3.874  -7.055   7.355  0.00  0.00     0.051 C 
BRANCH  33  34
HETATM   34  C   UNK     0      -4.972  -6.053   7.624  0.00  0.00     0.114 C 
BRANCH  34  35
HETATM   35  C   UNK     0      -4.531  -4.745   7.061  0.00  0.00     0.139 C 
HETATM   36  O   UNK     0      -4.817  -4.436   5.868  0.00  0.00    -0.650 OA
BRANCH  35  37
HETATM   37  O   UNK     0      -3.803  -3.819   7.798  0.00  0.00    -0.776 OA
HETATM   38  H   UNK     0      -3.826  -2.834   7.591  0.00  0.00     0.167 HD
ENDBRANCH  35  37
ENDBRANCH  34  35
ENDBRANCH  33  34
ENDBRANCH   6  33
BRANCH  27  39
HETATM   39  C   UNK     0       0.084 -14.352   9.954  0.00  0.00     0.051 C 
BRANCH  39  40
HETATM   40  C   UNK     0       0.898 -14.235   8.744  0.00  0.00     0.114 C 
BRANCH  40  41
HETATM   41  C   UNK     0       1.863 -13.174   8.564  0.00  0.00     0.139 C 
HETATM   42  O   UNK     0       1.571 -12.051   8.132  0.00  0.00    -0.650 OA
BRANCH  41  43
HETATM   43  O   UNK     0       3.226 -13.416   8.895  0.00  0.00    -0.776 OA
HETATM   44  H   UNK     0       3.464 -13.222   9.860  0.00  0.00     0.167 HD
ENDBRANCH  41  43
ENDBRANCH  40  41
ENDBRANCH  39  40
ENDBRANCH  27  39
BRANCH  11  45
HETATM   45  C   UNK     0       1.788  -4.566  12.538  0.00  0.00     0.051 C 
BRANCH  45  46
HETATM   46  C   UNK     0       2.522  -3.459  11.874  0.00  0.00     0.114 C 
BRANCH  46  47
HETATM   47  C   UNK     0       3.093  -2.600  12.951  0.00  0.00     0.139 C 
HETATM   48  O   UNK     0       2.344  -2.209  13.857  0.00  0.00    -0.650 OA
BRANCH  47  49
HETATM   49  O   UNK     0       4.419  -2.248  12.940  0.00  0.00    -0.776 OA
HETATM   50  H   UNK     0       4.723  -1.271  12.851  0.00  0.00     0.167 HD
ENDBRANCH  47  49
ENDBRANCH  46  47
ENDBRANCH  45  46
ENDBRANCH  11  45
BRANCH  18  51
HETATM   51  C   UNK     0       3.094 -11.210  14.245  0.00  0.00     0.051 C 
BRANCH  51  52
HETATM   52  C   UNK     0       4.273 -12.044  13.767  0.00  0.00     0.114 C 
BRANCH  52  53
HETATM   53  C   UNK     0       5.539 -11.617  14.394  0.00  0.00     0.139 C 
HETATM   54  O   UNK     0       5.533 -11.126  15.535  0.00  0.00    -0.650 OA
BRANCH  53  55
HETATM   55  O   UNK     0       6.721 -11.763  13.709  0.00  0.00    -0.776 OA
HETATM   56  H   UNK     0       7.548 -11.232  13.852  0.00  0.00     0.167 HD
ENDBRANCH  53  55
ENDBRANCH  52  53
ENDBRANCH  51  52
ENDBRANCH  18  51
TORSDOF 16
ENDMDL
MODEL 8
REMARK VINA RESULT:      -7.3     15.320     20.340
REMARK  16 active torsions:
REMARK  status: ('A' for Active; 'I' for Inactive)
REMARK    1  A    between atoms: C_6  and  C_7 
REMARK    2  A    between atoms: C_7  and  C_8 
REMARK    3  A    between atoms: C_8  and  C_9 
REMARK    4  A    between atoms: C_9  and  O_11 
REMARK    5  A    between atoms: C_16  and  C_17 
REMARK    6  A    between atoms: C_17  and  C_18 
REMARK    7  A    between atoms: C_18  and  C_19 
REMARK    8  A    between atoms: C_19  and  O_21 
REMARK    9  A    between atoms: C_28  and  C_29 
REMARK   10  A    between atoms: C_29  and  C_30 
REMARK   11  A    between atoms: C_30  and  C_31 
REMARK   12  A    between atoms: C_31  and  O_33 
REMARK   13  A    between atoms: C_42  and  C_43 
REMARK   14  A    between atoms: C_43  and  C_44 
REMARK   15  A    between atoms: C_44  and  C_45 
REMARK   16  A    between atoms: C_45  and  O_47 
ROOT
HETATM    1  C   UNK     0      15.033  17.705  -8.383  0.00  0.00     0.051 C 
HETATM    2  C   UNK     0      13.734  17.321  -9.061  0.00  0.00    -0.031 A 
HETATM    3  C   UNK     0      13.518  16.455 -10.122  0.00  0.00     0.021 A 
HETATM    4  N   UNK     0      12.196  16.441 -10.417  0.00  0.00    -0.361 N 
HETATM    5  C   UNK     0      11.565  17.272  -9.563  0.00  0.00     0.022 A 
HETATM    6  C   UNK     0      12.497  17.842  -8.703  0.00  0.00    -0.027 A 
HETATM    7  C   UNK     0      10.101  17.543  -9.405  0.00  0.00     0.115 C 
HETATM    8  C   UNK     0       9.175  16.341  -9.464  0.00  0.00     0.021 A 
HETATM    9  N   UNK     0       9.391  15.096  -9.009  0.00  0.00    -0.361 N 
HETATM   10  C   UNK     0       8.334  14.333  -9.359  0.00  0.00     0.022 A 
HETATM   11  C   UNK     0       7.408  15.109 -10.050  0.00  0.00    -0.027 A 
HETATM   12  C   UNK     0       7.931  16.375 -10.119  0.00  0.00    -0.031 A 
HETATM   13  C   UNK     0       7.266  17.561 -10.780  0.00  0.00     0.051 C 
HETATM   14  C   UNK     0       8.179  12.836  -9.105  0.00  0.00     0.115 C 
HETATM   15  C   UNK     0       9.251  11.985  -9.767  0.00  0.00     0.021 A 
HETATM   16  N   UNK     0      10.583  12.057  -9.589  0.00  0.00    -0.361 N 
HETATM   17  C   UNK     0      11.182  11.187 -10.405  0.00  0.00     0.022 A 
HETATM   18  C   UNK     0      10.192  10.508 -11.143  0.00  0.00    -0.027 A 
HETATM   19  C   UNK     0       8.986  11.017 -10.733  0.00  0.00    -0.031 A 
HETATM   20  C   UNK     0       7.646  10.533 -11.254  0.00  0.00     0.051 C 
HETATM   21  C   UNK     0      12.653  10.931 -10.641  0.00  0.00     0.115 C 
HETATM   22  C   UNK     0      13.591  12.110 -10.543  0.00  0.00     0.022 A 
HETATM   23  N   UNK     0      13.401  13.361 -10.983  0.00  0.00    -0.361 N 
HETATM   24  C   UNK     0      14.430  14.121 -10.555  0.00  0.00     0.021 A 
HETATM   25  C   UNK     0      15.308  13.339  -9.831  0.00  0.00    -0.031 A 
HETATM   26  C   UNK     0      16.623  13.728  -9.186  0.00  0.00     0.051 C 
HETATM   27  C   UNK     0      14.794  12.048  -9.809  0.00  0.00    -0.027 A 
HETATM   28  C   UNK     0      14.611  15.620 -10.725  0.00  0.00     0.115 C 
HETATM   29  H   UNK     0      11.724  15.874 -11.253  0.00  0.00     0.165 HD
HETATM   30  H   UNK     0      10.265  14.765  -8.397  0.00  0.00     0.165 HD
HETATM   31  H   UNK     0      11.110  12.702  -8.838  0.00  0.00     0.165 HD
HETATM   32  H   UNK     0      12.560  13.710 -11.637  0.00  0.00     0.165 HD
ENDROOT
BRANCH   6  33
HETATM   33  C   UNK     0      12.306  18.832  -7.582  0.00  0.00     0.051 C 
BRANCH  33  34
HETATM   34  C   UNK     0      12.215  18.124  -6.251  0.00  0.00     0.114 C 
BRANCH  34  35
HETATM   35  C   UNK     0      10.864  18.406  -5.687  0.00  0.00     0.139 C 
HETATM   36  O   UNK     0       9.927  17.567  -5.825  0.00  0.00    -0.650 OA
BRANCH  35  37
HETATM   37  O   UNK     0      10.571  19.575  -4.994  0.00  0.00    -0.776 OA
HETATM   38  H   UNK     0      10.719  19.659  -4.001  0.00  0.00     0.167 HD
ENDBRANCH  35  37
ENDBRANCH  34  35
ENDBRANCH  33  34
ENDBRANCH   6  33
BRANCH  27  39
HETATM   39  C   UNK     0      15.504  10.902  -9.179  0.00  0.00     0.051 C 
BRANCH  39  40
HETATM   40  C   UNK     0      16.010   9.838 -10.044  0.00  0.00     0.114 C 
BRANCH  40  41
HETATM   41  C   UNK     0      16.978   8.866  -9.586  0.00  0.00     0.139 C 
HETATM   42  O   UNK     0      17.594   8.105 -10.344  0.00  0.00    -0.650 OA
BRANCH  41  43
HETATM   43  O   UNK     0      17.249   8.766  -8.192  0.00  0.00    -0.776 OA
HETATM   44  H   UNK     0      17.373   9.656  -7.724  0.00  0.00     0.167 HD
ENDBRANCH  41  43
ENDBRANCH  40  41
ENDBRANCH  39  40
ENDBRANCH  27  39
BRANCH  11  45
HETATM   45  C   UNK     0       6.079  14.699 -10.627  0.00  0.00     0.051 C 
BRANCH  45  46
HETATM   46  C   UNK     0       4.954  14.760  -9.660  0.00  0.00     0.114 C 
BRANCH  46  47
HETATM   47  C   UNK     0       3.754  14.196 -10.343  0.00  0.00     0.139 C 
HETATM   48  O   UNK     0       3.868  13.805 -11.513  0.00  0.00    -0.650 OA
BRANCH  47  49
HETATM   49  O   UNK     0       2.550  14.112  -9.691  0.00  0.00    -0.776 OA
HETATM   50  H   UNK     0       2.410  13.498  -8.880  0.00  0.00     0.167 HD
ENDBRANCH  47  49
ENDBRANCH  46  47
ENDBRANCH  45  46
ENDBRANCH  11  45
BRANCH  18  51
HETATM   51  C   UNK     0      10.383   9.420 -12.167  0.00  0.00     0.051 C 
BRANCH  51  52
HETATM   52  C   UNK     0      10.475   8.115 -11.390  0.00  0.00     0.114 C 
BRANCH  52  53
HETATM   53  C   UNK     0      11.699   7.362 -11.724  0.00  0.00     0.139 C 
HETATM   54  O   UNK     0      11.774   6.740 -12.795  0.00  0.00    -0.650 OA
BRANCH  53  55
HETATM   55  O   UNK     0      12.752   7.352 -10.841  0.00  0.00    -0.776 OA
HETATM   56  H   UNK     0      13.663   7.000 -11.023  0.00  0.00     0.167 HD
ENDBRANCH  53  55
ENDBRANCH  52  53
ENDBRANCH  51  52
ENDBRANCH  18  51
TORSDOF 16
ENDMDL
MODEL 9
REMARK VINA RESULT:      -7.3     14.631     19.178
REMARK  16 active torsions:
REMARK  status: ('A' for Active; 'I' for Inactive)
REMARK    1  A    between atoms: C_6  and  C_7 
REMARK    2  A    between atoms: C_7  and  C_8 
REMARK    3  A    between atoms: C_8  and  C_9 
REMARK    4  A    between atoms: C_9  and  O_11 
REMARK    5  A    between atoms: C_16  and  C_17 
REMARK    6  A    between atoms: C_17  and  C_18 
REMARK    7  A    between atoms: C_18  and  C_19 
REMARK    8  A    between atoms: C_19  and  O_21 
REMARK    9  A    between atoms: C_28  and  C_29 
REMARK   10  A    between atoms: C_29  and  C_30 
REMARK   11  A    between atoms: C_30  and  C_31 
REMARK   12  A    between atoms: C_31  and  O_33 
REMARK   13  A    between atoms: C_42  and  C_43 
REMARK   14  A    between atoms: C_43  and  C_44 
REMARK   15  A    between atoms: C_44  and  C_45 
REMARK   16  A    between atoms: C_45  and  O_47 
ROOT
HETATM    1  C   UNK     0      11.379  17.266  -6.974  0.00  0.00     0.051 C 
HETATM    2  C   UNK     0      10.582  16.437  -7.960  0.00  0.00    -0.031 A 
HETATM    3  C   UNK     0      10.853  16.149  -9.289  0.00  0.00     0.021 A 
HETATM    4  N   UNK     0       9.846  15.395  -9.791  0.00  0.00    -0.361 N 
HETATM    5  C   UNK     0       8.944  15.189  -8.809  0.00  0.00     0.022 A 
HETATM    6  C   UNK     0       9.372  15.829  -7.651  0.00  0.00    -0.027 A 
HETATM    7  C   UNK     0       7.704  14.350  -8.816  0.00  0.00     0.115 C 
HETATM    8  C   UNK     0       7.806  12.989  -9.482  0.00  0.00     0.021 A 
HETATM    9  N   UNK     0       8.848  12.143  -9.499  0.00  0.00    -0.361 N 
HETATM   10  C   UNK     0       8.524  11.096 -10.287  0.00  0.00     0.022 A 
HETATM   11  C   UNK     0       7.235  11.268 -10.784  0.00  0.00    -0.027 A 
HETATM   12  C   UNK     0       6.777  12.459 -10.280  0.00  0.00    -0.031 A 
HETATM   13  C   UNK     0       5.414  13.055 -10.549  0.00  0.00     0.051 C 
HETATM   14  C   UNK     0       9.432   9.923 -10.646  0.00  0.00     0.115 C 
HETATM   15  C   UNK     0      10.698  10.327 -11.384  0.00  0.00     0.021 A 
HETATM   16  N   UNK     0      11.659  11.171 -10.965  0.00  0.00    -0.361 N 
HETATM   17  C   UNK     0      12.567  11.316 -11.932  0.00  0.00     0.022 A 
HETATM   18  C   UNK     0      12.185  10.519 -13.030  0.00  0.00    -0.027 A 
HETATM   19  C   UNK     0      11.014   9.904 -12.674  0.00  0.00    -0.031 A 
HETATM   20  C   UNK     0      10.272   8.921 -13.561  0.00  0.00     0.051 C 
HETATM   21  C   UNK     0      13.792  12.200 -11.990  0.00  0.00     0.115 C 
HETATM   22  C   UNK     0      13.720  13.539 -11.295  0.00  0.00     0.022 A 
HETATM   23  N   UNK     0      12.695  14.400 -11.257  0.00  0.00    -0.361 N 
HETATM   24  C   UNK     0      13.010  15.396 -10.405  0.00  0.00     0.021 A 
HETATM   25  C   UNK     0      14.273  15.176  -9.889  0.00  0.00    -0.031 A 
HETATM   26  C   UNK     0      15.073  16.032  -8.929  0.00  0.00     0.051 C 
HETATM   27  C   UNK     0      14.748  13.993 -10.444  0.00  0.00    -0.027 A 
HETATM   28  C   UNK     0      12.132  16.555  -9.964  0.00  0.00     0.115 C 
HETATM   29  H   UNK     0       9.760  15.047 -10.847  0.00  0.00     0.165 HD
HETATM   30  H   UNK     0       9.794  12.257  -8.916  0.00  0.00     0.165 HD
HETATM   31  H   UNK     0      11.723  11.639  -9.948  0.00  0.00     0.165 HD
HETATM   32  H   UNK     0      11.756  14.336 -11.866  0.00  0.00     0.165 HD
ENDROOT
BRANCH   6  33
HETATM   33  C   UNK     0       8.725  15.909  -6.291  0.00  0.00     0.051 C 
BRANCH  33  34
HETATM   34  C   UNK     0       7.847  17.133  -6.187  0.00  0.00     0.114 C 
BRANCH  34  35
HETATM   35  C   UNK     0       7.913  17.611  -4.776  0.00  0.00     0.139 C 
HETATM   36  O   UNK     0       6.862  17.995  -4.184  0.00  0.00    -0.650 OA
BRANCH  35  37
HETATM   37  O   UNK     0       9.100  17.656  -4.055  0.00  0.00    -0.776 OA
HETATM   38  H   UNK     0       9.887  18.207  -4.355  0.00  0.00     0.167 HD
ENDBRANCH  35  37
ENDBRANCH  34  35
ENDBRANCH  33  34
ENDBRANCH   6  33
BRANCH  27  39
HETATM   39  C   UNK     0      16.113  13.464 -10.178  0.00  0.00     0.051 C 
BRANCH  39  40
HETATM   40  C   UNK     0      16.312  12.615  -9.004  0.00  0.00     0.114 C 
BRANCH  40  41
HETATM   41  C   UNK     0      15.958  11.213  -8.998  0.00  0.00     0.139 C 
HETATM   42  O   UNK     0      14.790  10.803  -9.015  0.00  0.00    -0.650 OA
BRANCH  41  43
HETATM   43  O   UNK     0      16.996  10.239  -8.971  0.00  0.00    -0.776 OA
HETATM   44  H   UNK     0      17.659  10.311  -9.733  0.00  0.00     0.167 HD
ENDBRANCH  41  43
ENDBRANCH  40  41
ENDBRANCH  39  40
ENDBRANCH  27  39
BRANCH  11  45
HETATM   45  C   UNK     0       6.447  10.363 -11.692  0.00  0.00     0.051 C 
BRANCH  45  46
HETATM   46  C   UNK     0       6.771  10.519 -13.133  0.00  0.00     0.114 C 
BRANCH  46  47
HETATM   47  C   UNK     0       5.531  10.986 -13.817  0.00  0.00     0.139 C 
HETATM   48  O   UNK     0       5.643  11.660 -14.850  0.00  0.00    -0.650 OA
BRANCH  47  49
HETATM   49  O   UNK     0       4.293  10.678 -13.313  0.00  0.00    -0.776 OA
HETATM   50  H   UNK     0       3.609  11.403 -13.067  0.00  0.00     0.167 HD
ENDBRANCH  47  49
ENDBRANCH  46  47
ENDBRANCH  45  46
ENDBRANCH  11  45
BRANCH  18  51
HETATM   51  C   UNK     0      12.909  10.338 -14.339  0.00  0.00     0.051 C 
BRANCH  51  52
HETATM   52  C   UNK     0      12.327  11.370 -15.294  0.00  0.00     0.114 C 
BRANCH  52  53
HETATM   53  C   UNK     0      13.195  11.583 -16.468  0.00  0.00     0.139 C 
HETATM   54  O   UNK     0      13.612  12.722 -16.734  0.00  0.00    -0.650 OA
BRANCH  53  55
HETATM   55  O   UNK     0      13.534  10.517 -17.265  0.00  0.00    -0.776 OA
HETATM   56  H   UNK     0      13.074  10.244 -18.102  0.00  0.00     0.167 HD
ENDBRANCH  53  55
ENDBRANCH  52  53
ENDBRANCH  51  52
ENDBRANCH  18  51
TORSDOF 16
ENDMDL
MODEL 10
REMARK VINA RESULT:      -7.2     23.484     26.331
REMARK  16 active torsions:
REMARK  status: ('A' for Active; 'I' for Inactive)
REMARK    1  A    between atoms: C_6  and  C_7 
REMARK    2  A    between atoms: C_7  and  C_8 
REMARK    3  A    between atoms: C_8  and  C_9 
REMARK    4  A    between atoms: C_9  and  O_11 
REMARK    5  A    between atoms: C_16  and  C_17 
REMARK    6  A    between atoms: C_17  and  C_18 
REMARK    7  A    between atoms: C_18  and  C_19 
REMARK    8  A    between atoms: C_19  and  O_21 
REMARK    9  A    between atoms: C_28  and  C_29 
REMARK   10  A    between atoms: C_29  and  C_30 
REMARK   11  A    between atoms: C_30  and  C_31 
REMARK   12  A    between atoms: C_31  and  O_33 
REMARK   13  A    between atoms: C_42  and  C_43 
REMARK   14  A    between atoms: C_43  and  C_44 
REMARK   15  A    between atoms: C_44  and  C_45 
REMARK   16  A    between atoms: C_45  and  O_47 
ROOT
HETATM    1  C   UNK     0      11.389 -10.243  -8.157  0.00  0.00     0.051 C 
HETATM    2  C   UNK     0      10.324 -11.066  -8.851  0.00  0.00    -0.031 A 
HETATM    3  C   UNK     0       9.434 -11.984  -8.316  0.00  0.00     0.021 A 
HETATM    4  N   UNK     0       8.682 -12.504  -9.315  0.00  0.00    -0.361 N 
HETATM    5  C   UNK     0       9.067 -11.932 -10.474  0.00  0.00     0.022 A 
HETATM    6  C   UNK     0      10.095 -11.029 -10.221  0.00  0.00    -0.027 A 
HETATM    7  C   UNK     0       8.496 -12.087 -11.849  0.00  0.00     0.115 C 
HETATM    8  C   UNK     0       6.982 -12.103 -11.959  0.00  0.00     0.021 A 
HETATM    9  N   UNK     0       6.083 -11.411 -11.242  0.00  0.00    -0.361 N 
HETATM   10  C   UNK     0       4.849 -11.809 -11.619  0.00  0.00     0.022 A 
HETATM   11  C   UNK     0       4.956 -12.777 -12.613  0.00  0.00    -0.027 A 
HETATM   12  C   UNK     0       6.296 -12.967 -12.833  0.00  0.00    -0.031 A 
HETATM   13  C   UNK     0       6.890 -13.928 -13.838  0.00  0.00     0.051 C 
HETATM   14  C   UNK     0       3.528 -11.334 -11.022  0.00  0.00     0.115 C 
HETATM   15  C   UNK     0       3.376 -11.638  -9.540  0.00  0.00     0.021 A 
HETATM   16  N   UNK     0       4.177 -11.240  -8.534  0.00  0.00    -0.361 N 
HETATM   17  C   UNK     0       3.743 -11.775  -7.390  0.00  0.00     0.022 A 
HETATM   18  C   UNK     0       2.599 -12.551  -7.663  0.00  0.00    -0.027 A 
HETATM   19  C   UNK     0       2.379 -12.456  -9.013  0.00  0.00    -0.031 A 
HETATM   20  C   UNK     0       1.215 -13.118  -9.727  0.00  0.00     0.051 C 
HETATM   21  C   UNK     0       4.327 -11.697  -5.998  0.00  0.00     0.115 C 
HETATM   22  C   UNK     0       5.831 -11.636  -5.875  0.00  0.00     0.022 A 
HETATM   23  N   UNK     0       6.750 -12.310  -6.579  0.00  0.00    -0.361 N 
HETATM   24  C   UNK     0       7.969 -11.842  -6.242  0.00  0.00     0.021 A 
HETATM   25  C   UNK     0       7.832 -10.850  -5.291  0.00  0.00    -0.031 A 
HETATM   26  C   UNK     0       8.909 -10.057  -4.579  0.00  0.00     0.051 C 
HETATM   27  C   UNK     0       6.473 -10.700  -5.039  0.00  0.00    -0.027 A 
HETATM   28  C   UNK     0       9.311 -12.231  -6.839  0.00  0.00     0.115 C 
HETATM   29  H   UNK     0       7.911 -13.302  -9.200  0.00  0.00     0.165 HD
HETATM   30  H   UNK     0       6.316 -10.605 -10.503  0.00  0.00     0.165 HD
HETATM   31  H   UNK     0       5.039 -10.529  -8.624  0.00  0.00     0.165 HD
HETATM   32  H   UNK     0       6.549 -13.154  -7.289  0.00  0.00     0.165 HD
ENDROOT
BRANCH   6  33
HETATM   33  C   UNK     0      10.867 -10.147 -11.169  0.00  0.00     0.051 C 
BRANCH  33  34
HETATM   34  C   UNK     0      12.078 -10.872 -11.708  0.00  0.00     0.114 C 
BRANCH  34  35
HETATM   35  C   UNK     0      13.237  -9.938 -11.611  0.00  0.00     0.139 C 
HETATM   36  O   UNK     0      13.798  -9.508 -12.660  0.00  0.00    -0.650 OA
BRANCH  35  37
HETATM   37  O   UNK     0      13.747  -9.501 -10.394  0.00  0.00    -0.776 OA
HETATM   38  H   UNK     0      13.750  -8.528 -10.135  0.00  0.00     0.167 HD
ENDBRANCH  35  37
ENDBRANCH  34  35
ENDBRANCH  33  34
ENDBRANCH   6  33
BRANCH  27  39
HETATM   39  C   UNK     0       5.937  -9.766  -4.012  0.00  0.00     0.051 C 
BRANCH  39  40
HETATM   40  C   UNK     0       5.647  -8.389  -4.411  0.00  0.00     0.114 C 
BRANCH  40  41
HETATM   41  C   UNK     0       4.480  -7.679  -3.936  0.00  0.00     0.139 C 
HETATM   42  O   UNK     0       3.519  -7.383  -4.659  0.00  0.00    -0.650 OA
BRANCH  41  43
HETATM   43  O   UNK     0       4.416  -7.293  -2.567  0.00  0.00    -0.776 OA
HETATM   44  H   UNK     0       4.404  -6.292  -2.414  0.00  0.00     0.167 HD
ENDBRANCH  41  43
ENDBRANCH  40  41
ENDBRANCH  39  40
ENDBRANCH  27  39
BRANCH  11  45
HETATM   45  C   UNK     0       3.858 -13.503 -13.342  0.00  0.00     0.051 C 
BRANCH  45  46
HETATM   46  C   UNK     0       3.258 -12.730 -14.460  0.00  0.00     0.114 C 
BRANCH  46  47
HETATM   47  C   UNK     0       1.798 -12.613 -14.182  0.00  0.00     0.139 C 
HETATM   48  O   UNK     0       1.336 -13.186 -13.186  0.00  0.00    -0.650 OA
BRANCH  47  49
HETATM   49  O   UNK     0       0.981 -11.887 -15.012  0.00  0.00    -0.776 OA
HETATM   50  H   UNK     0      -0.039 -12.010 -15.016  0.00  0.00     0.167 HD
ENDBRANCH  47  49
ENDBRANCH  46  47
ENDBRANCH  45  46
ENDBRANCH  11  45
BRANCH  18  51
HETATM   51  C   UNK     0       1.749 -13.323  -6.688  0.00  0.00     0.051 C 
BRANCH  51  52
HETATM   52  C   UNK     0       0.898 -12.295  -5.957  0.00  0.00     0.114 C 
BRANCH  52  53
HETATM   53  C   UNK     0      -0.536 -12.448  -6.267  0.00  0.00     0.139 C 
HETATM   54  O   UNK     0      -0.922 -13.395  -6.971  0.00  0.00    -0.650 OA
BRANCH  53  55
HETATM   55  O   UNK     0      -1.439 -11.536  -5.776  0.00  0.00    -0.776 OA
HETATM   56  H   UNK     0      -2.386 -11.442  -6.059  0.00  0.00     0.167 HD
ENDBRANCH  53  55
ENDBRANCH  52  53
ENDBRANCH  51  52
ENDBRANCH  18  51
TORSDOF 16
ENDMDL
MODEL 11
REMARK VINA RESULT:      -7.2      4.386      8.229
REMARK  16 active torsions:
REMARK  status: ('A' for Active; 'I' for Inactive)
REMARK    1  A    between atoms: C_6  and  C_7 
REMARK    2  A    between atoms: C_7  and  C_8 
REMARK    3  A    between atoms: C_8  and  C_9 
REMARK    4  A    between atoms: C_9  and  O_11 
REMARK    5  A    between atoms: C_16  and  C_17 
REMARK    6  A    between atoms: C_17  and  C_18 
REMARK    7  A    between atoms: C_18  and  C_19 
REMARK    8  A    between atoms: C_19  and  O_21 
REMARK    9  A    between atoms: C_28  and  C_29 
REMARK   10  A    between atoms: C_29  and  C_30 
REMARK   11  A    between atoms: C_30  and  C_31 
REMARK   12  A    between atoms: C_31  and  O_33 
REMARK   13  A    between atoms: C_42  and  C_43 
REMARK   14  A    between atoms: C_43  and  C_44 
REMARK   15  A    between atoms: C_44  and  C_45 
REMARK   16  A    between atoms: C_45  and  O_47 
ROOT
HETATM    1  C   UNK     0       3.870   4.593 -18.267  0.00  0.00     0.051 C 
HETATM    2  C   UNK     0       2.804   5.663 -18.149  0.00  0.00    -0.031 A 
HETATM    3  C   UNK     0       1.847   6.056 -19.071  0.00  0.00     0.021 A 
HETATM    4  N   UNK     0       1.123   7.075 -18.549  0.00  0.00    -0.361 N 
HETATM    5  C   UNK     0       1.592   7.333 -17.310  0.00  0.00     0.022 A 
HETATM    6  C   UNK     0       2.646   6.470 -17.030  0.00  0.00    -0.027 A 
HETATM    7  C   UNK     0       1.083   8.293 -16.281  0.00  0.00     0.115 C 
HETATM    8  C   UNK     0      -0.423   8.365 -16.101  0.00  0.00     0.021 A 
HETATM    9  N   UNK     0      -1.323   7.373 -16.184  0.00  0.00    -0.361 N 
HETATM   10  C   UNK     0      -2.553   7.911 -16.046  0.00  0.00     0.022 A 
HETATM   11  C   UNK     0      -2.442   9.285 -15.858  0.00  0.00    -0.027 A 
HETATM   12  C   UNK     0      -1.102   9.578 -15.891  0.00  0.00    -0.031 A 
HETATM   13  C   UNK     0      -0.504  10.957 -15.725  0.00  0.00     0.051 C 
HETATM   14  C   UNK     0      -3.880   7.162 -16.137  0.00  0.00     0.115 C 
HETATM   15  C   UNK     0      -4.119   6.496 -17.482  0.00  0.00     0.021 A 
HETATM   16  N   UNK     0      -3.353   5.570 -18.088  0.00  0.00    -0.361 N 
HETATM   17  C   UNK     0      -3.868   5.291 -19.288  0.00  0.00     0.022 A 
HETATM   18  C   UNK     0      -5.031   6.065 -19.468  0.00  0.00    -0.027 A 
HETATM   19  C   UNK     0      -5.179   6.814 -18.330  0.00  0.00    -0.031 A 
HETATM   20  C   UNK     0      -6.335   7.768 -18.091  0.00  0.00     0.051 C 
HETATM   21  C   UNK     0      -3.351   4.382 -20.380  0.00  0.00     0.115 C 
HETATM   22  C   UNK     0      -1.854   4.267 -20.541  0.00  0.00     0.022 A 
HETATM   23  N   UNK     0      -0.933   5.236 -20.459  0.00  0.00    -0.361 N 
HETATM   24  C   UNK     0       0.288   4.667 -20.522  0.00  0.00     0.021 A 
HETATM   25  C   UNK     0       0.150   3.299 -20.659  0.00  0.00    -0.031 A 
HETATM   26  C   UNK     0       1.225   2.243 -20.810  0.00  0.00     0.051 C 
HETATM   27  C   UNK     0      -1.212   3.019 -20.674  0.00  0.00    -0.027 A 
HETATM   28  C   UNK     0       1.639   5.347 -20.379  0.00  0.00     0.115 C 
HETATM   29  H   UNK     0       0.311   7.630 -19.074  0.00  0.00     0.165 HD
HETATM   30  H   UNK     0      -1.091   6.285 -16.292  0.00  0.00     0.165 HD
HETATM   31  H   UNK     0      -2.455   5.067 -17.642  0.00  0.00     0.165 HD
HETATM   32  H   UNK     0      -1.137   6.337 -20.399  0.00  0.00     0.165 HD
ENDROOT
BRANCH   6  33
HETATM   33  C   UNK     0       3.504   6.356 -15.795  0.00  0.00     0.051 C 
BRANCH  33  34
HETATM   34  C   UNK     0       4.801   7.110 -15.974  0.00  0.00     0.114 C 
BRANCH  34  35
HETATM   35  C   UNK     0       5.913   6.166 -15.667  0.00  0.00     0.139 C 
HETATM   36  O   UNK     0       5.660   4.974 -15.323  0.00  0.00    -0.650 OA
BRANCH  35  37
HETATM   37  O   UNK     0       7.251   6.534 -15.741  0.00  0.00    -0.776 OA
HETATM   38  H   UNK     0       7.576   7.434 -15.427  0.00  0.00     0.167 HD
ENDBRANCH  35  37
ENDBRANCH  34  35
ENDBRANCH  33  34
ENDBRANCH   6  33
BRANCH  27  39
HETATM   39  C   UNK     0      -1.755   1.648 -20.879  0.00  0.00     0.051 C 
BRANCH  39  40
HETATM   40  C   UNK     0      -2.026   0.826 -19.700  0.00  0.00     0.114 C 
BRANCH  40  41
HETATM   41  C   UNK     0      -3.196   1.025 -18.874  0.00  0.00     0.139 C 
HETATM   42  O   UNK     0      -3.247   1.846 -17.948  0.00  0.00    -0.650 OA
BRANCH  41  43
HETATM   43  O   UNK     0      -4.359   0.243 -19.124  0.00  0.00    -0.776 OA
HETATM   44  H   UNK     0      -4.889   0.529 -19.938  0.00  0.00     0.167 HD
ENDBRANCH  41  43
ENDBRANCH  40  41
ENDBRANCH  39  40
ENDBRANCH  27  39
BRANCH  11  45
HETATM   45  C   UNK     0      -3.535  10.299 -15.651  0.00  0.00     0.051 C 
BRANCH  45  46
HETATM   46  C   UNK     0      -3.556  10.898 -14.292  0.00  0.00     0.114 C 
BRANCH  46  47
HETATM   47  C   UNK     0      -4.197   9.906 -13.382  0.00  0.00     0.139 C 
HETATM   48  O   UNK     0      -3.642   9.645 -12.305  0.00  0.00    -0.650 OA
BRANCH  47  49
HETATM   49  O   UNK     0      -5.374   9.292 -13.728  0.00  0.00    -0.776 OA
HETATM   50  H   UNK     0      -5.546   8.939 -14.677  0.00  0.00     0.167 HD
ENDBRANCH  47  49
ENDBRANCH  46  47
ENDBRANCH  45  46
ENDBRANCH  11  45
BRANCH  18  51
HETATM   51  C   UNK     0      -5.963   6.074 -20.652  0.00  0.00     0.051 C 
BRANCH  51  52
HETATM   52  C   UNK     0      -5.510   7.222 -21.542  0.00  0.00     0.114 C 
BRANCH  52  53
HETATM   53  C   UNK     0      -6.650   8.024 -22.028  0.00  0.00     0.139 C 
HETATM   54  O   UNK     0      -7.703   8.068 -21.372  0.00  0.00    -0.650 OA
BRANCH  53  55
HETATM   55  O   UNK     0      -6.539   8.717 -23.209  0.00  0.00    -0.776 OA
HETATM   56  H   UNK     0      -5.704   9.099 -23.585  0.00  0.00     0.167 HD
ENDBRANCH  53  55
ENDBRANCH  52  53
ENDBRANCH  51  52
ENDBRANCH  18  51
TORSDOF 16
ENDMDL
MODEL 12
REMARK VINA RESULT:      -7.1      4.303      7.244
REMARK  16 active torsions:
REMARK  status: ('A' for Active; 'I' for Inactive)
REMARK    1  A    between atoms: C_6  and  C_7 
REMARK    2  A    between atoms: C_7  and  C_8 
REMARK    3  A    between atoms: C_8  and  C_9 
REMARK    4  A    between atoms: C_9  and  O_11 
REMARK    5  A    between atoms: C_16  and  C_17 
REMARK    6  A    between atoms: C_17  and  C_18 
REMARK    7  A    between atoms: C_18  and  C_19 
REMARK    8  A    between atoms: C_19  and  O_21 
REMARK    9  A    between atoms: C_28  and  C_29 
REMARK   10  A    between atoms: C_29  and  C_30 
REMARK   11  A    between atoms: C_30  and  C_31 
REMARK   12  A    between atoms: C_31  and  O_33 
REMARK   13  A    between atoms: C_42  and  C_43 
REMARK   14  A    between atoms: C_43  and  C_44 
REMARK   15  A    between atoms: C_44  and  C_45 
REMARK   16  A    between atoms: C_45  and  O_47 
ROOT
HETATM    1  C   UNK     0      -4.721   9.575 -16.189  0.00  0.00     0.051 C 
HETATM    2  C   UNK     0      -3.514   8.658 -16.202  0.00  0.00    -0.031 A 
HETATM    3  C   UNK     0      -3.457   7.282 -16.356  0.00  0.00     0.021 A 
HETATM    4  N   UNK     0      -2.166   6.882 -16.270  0.00  0.00    -0.361 N 
HETATM    5  C   UNK     0      -1.399   7.974 -16.074  0.00  0.00     0.022 A 
HETATM    6  C   UNK     0      -2.211   9.102 -16.023  0.00  0.00    -0.027 A 
HETATM    7  C   UNK     0       0.092   8.090 -16.005  0.00  0.00     0.115 C 
HETATM    8  C   UNK     0       0.885   7.289 -17.022  0.00  0.00     0.021 A 
HETATM    9  N   UNK     0       0.576   7.020 -18.300  0.00  0.00    -0.361 N 
HETATM   10  C   UNK     0       1.525   6.199 -18.798  0.00  0.00     0.022 A 
HETATM   11  C   UNK     0       2.477   5.939 -17.816  0.00  0.00    -0.027 A 
HETATM   12  C   UNK     0       2.080   6.623 -16.695  0.00  0.00    -0.031 A 
HETATM   13  C   UNK     0       2.817   6.640 -15.375  0.00  0.00     0.051 C 
HETATM   14  C   UNK     0       1.544   5.586 -20.195  0.00  0.00     0.115 C 
HETATM   15  C   UNK     0       0.351   4.693 -20.492  0.00  0.00     0.021 A 
HETATM   16  N   UNK     0      -0.953   5.027 -20.464  0.00  0.00    -0.361 N 
HETATM   17  C   UNK     0      -1.690   3.943 -20.716  0.00  0.00     0.022 A 
HETATM   18  C   UNK     0      -0.824   2.851 -20.927  0.00  0.00    -0.027 A 
HETATM   19  C   UNK     0       0.451   3.334 -20.785  0.00  0.00    -0.031 A 
HETATM   20  C   UNK     0       1.699   2.490 -20.969  0.00  0.00     0.051 C 
HETATM   21  C   UNK     0      -3.191   3.769 -20.729  0.00  0.00     0.115 C 
HETATM   22  C   UNK     0      -3.997   4.592 -19.752  0.00  0.00     0.022 A 
HETATM   23  N   UNK     0      -3.711   4.880 -18.475  0.00  0.00    -0.361 N 
HETATM   24  C   UNK     0      -4.627   5.761 -18.024  0.00  0.00     0.021 A 
HETATM   25  C   UNK     0      -5.531   6.039 -19.031  0.00  0.00    -0.031 A 
HETATM   26  C   UNK     0      -6.753   6.932 -18.995  0.00  0.00     0.051 C 
HETATM   27  C   UNK     0      -5.149   5.303 -20.147  0.00  0.00    -0.027 A 
HETATM   28  C   UNK     0      -4.667   6.448 -16.670  0.00  0.00     0.115 C 
HETATM   29  H   UNK     0      -1.810   5.826 -16.309  0.00  0.00     0.165 HD
HETATM   30  H   UNK     0      -0.285   7.449 -18.869  0.00  0.00     0.165 HD
HETATM   31  H   UNK     0      -1.362   6.060 -20.311  0.00  0.00     0.165 HD
HETATM   32  H   UNK     0      -2.884   4.430 -17.866  0.00  0.00     0.165 HD
ENDROOT
BRANCH   6  33
HETATM   33  C   UNK     0      -1.846  10.551 -15.818  0.00  0.00     0.051 C 
BRANCH  33  34
HETATM   34  C   UNK     0      -2.556  11.115 -14.610  0.00  0.00     0.114 C 
BRANCH  34  35
HETATM   35  C   UNK     0      -2.087  10.350 -13.419  0.00  0.00     0.139 C 
HETATM   36  O   UNK     0      -0.855  10.309 -13.133  0.00  0.00    -0.650 OA
BRANCH  35  37
HETATM   37  O   UNK     0      -2.956   9.662 -12.581  0.00  0.00    -0.776 OA
HETATM   38  H   UNK     0      -3.596   8.967 -12.929  0.00  0.00     0.167 HD
ENDBRANCH  35  37
ENDBRANCH  34  35
ENDBRANCH  33  34
ENDBRANCH   6  33
BRANCH  27  39
HETATM   39  C   UNK     0      -5.928   5.289 -21.415  0.00  0.00     0.051 C 
BRANCH  39  40
HETATM   40  C   UNK     0      -6.916   4.229 -21.610  0.00  0.00     0.114 C 
BRANCH  40  41
HETATM   41  C   UNK     0      -6.557   2.924 -22.118  0.00  0.00     0.139 C 
HETATM   42  O   UNK     0      -6.718   2.582 -23.297  0.00  0.00    -0.650 OA
BRANCH  41  43
HETATM   43  O   UNK     0      -5.986   1.970 -21.229  0.00  0.00    -0.776 OA
HETATM   44  H   UNK     0      -5.052   1.669 -21.480  0.00  0.00     0.167 HD
ENDBRANCH  41  43
ENDBRANCH  40  41
ENDBRANCH  39  40
ENDBRANCH  27  39
BRANCH  11  45
HETATM   45  C   UNK     0       3.716   5.090 -17.907  0.00  0.00     0.051 C 
BRANCH  45  46
HETATM   46  C   UNK     0       3.452   3.629 -17.881  0.00  0.00     0.114 C 
BRANCH  46  47
HETATM   47  C   UNK     0       4.197   3.066 -16.719  0.00  0.00     0.139 C 
HETATM   48  O   UNK     0       4.150   1.844 -16.521  0.00  0.00    -0.650 OA
BRANCH  47  49
HETATM   49  O   UNK     0       4.918   3.882 -15.885  0.00  0.00    -0.776 OA
HETATM   50  H   UNK     0       5.334   3.538 -15.011  0.00  0.00     0.167 HD
ENDBRANCH  47  49
ENDBRANCH  46  47
ENDBRANCH  45  46
ENDBRANCH  11  45
BRANCH  18  51
HETATM   51  C   UNK     0      -1.191   1.430 -21.266  0.00  0.00     0.051 C 
BRANCH  51  52
HETATM   52  C   UNK     0      -1.801   0.835 -20.006  0.00  0.00     0.114 C 
BRANCH  52  53
HETATM   53  C   UNK     0      -3.187   0.379 -20.228  0.00  0.00     0.139 C 
HETATM   54  O   UNK     0      -3.556   0.042 -21.364  0.00  0.00    -0.650 OA
BRANCH  53  55
HETATM   55  O   UNK     0      -4.065   0.335 -19.173  0.00  0.00    -0.776 OA
HETATM   56  H   UNK     0      -4.537   1.111 -18.772  0.00  0.00     0.167 HD
ENDBRANCH  53  55
ENDBRANCH  52  53
ENDBRANCH  51  52
ENDBRANCH  18  51
TORSDOF 16
ENDMDL
MODEL 13
REMARK VINA RESULT:      -7.1      1.985      7.451
REMARK  16 active torsions:
REMARK  status: ('A' for Active; 'I' for Inactive)
REMARK    1  A    between atoms: C_6  and  C_7 
REMARK    2  A    between atoms: C_7  and  C_8 
REMARK    3  A    between atoms: C_8  and  C_9 
REMARK    4  A    between atoms: C_9  and  O_11 
REMARK    5  A    between atoms: C_16  and  C_17 
REMARK    6  A    between atoms: C_17  and  C_18 
REMARK    7  A    between atoms: C_18  and  C_19 
REMARK    8  A    between atoms: C_19  and  O_21 
REMARK    9  A    between atoms: C_28  and  C_29 
REMARK   10  A    between atoms: C_29  and  C_30 
REMARK   11  A    between atoms: C_30  and  C_31 
REMARK   12  A    between atoms: C_31  and  O_33 
REMARK   13  A    between atoms: C_42  and  C_43 
REMARK   14  A    between atoms: C_43  and  C_44 
REMARK   15  A    between atoms: C_44  and  C_45 
REMARK   16  A    between atoms: C_45  and  O_47 
ROOT
HETATM    1  C   UNK     0      -4.625   4.311 -18.223  0.00  0.00     0.051 C 
HETATM    2  C   UNK     0      -4.098   5.715 -18.004  0.00  0.00    -0.031 A 
HETATM    3  C   UNK     0      -3.651   6.641 -18.933  0.00  0.00     0.021 A 
HETATM    4  N   UNK     0      -3.241   7.756 -18.283  0.00  0.00    -0.361 N 
HETATM    5  C   UNK     0      -3.426   7.564 -16.961  0.00  0.00     0.022 A 
HETATM    6  C   UNK     0      -3.957   6.296 -16.751  0.00  0.00    -0.027 A 
HETATM    7  C   UNK     0      -3.223   8.515 -15.823  0.00  0.00     0.115 C 
HETATM    8  C   UNK     0      -3.700   9.941 -16.034  0.00  0.00     0.021 A 
HETATM    9  N   UNK     0      -4.775  10.371 -16.713  0.00  0.00    -0.361 N 
HETATM   10  C   UNK     0      -4.757  11.721 -16.715  0.00  0.00     0.022 A 
HETATM   11  C   UNK     0      -3.645  12.173 -16.011  0.00  0.00    -0.027 A 
HETATM   12  C   UNK     0      -2.975  11.057 -15.579  0.00  0.00    -0.031 A 
HETATM   13  C   UNK     0      -1.701  11.063 -14.763  0.00  0.00     0.051 C 
HETATM   14  C   UNK     0      -5.753  12.635 -17.424  0.00  0.00     0.115 C 
HETATM   15  C   UNK     0      -5.796  12.447 -18.932  0.00  0.00     0.021 A 
HETATM   16  N   UNK     0      -6.078  11.319 -19.611  0.00  0.00    -0.361 N 
HETATM   17  C   UNK     0      -5.942  11.549 -20.919  0.00  0.00     0.022 A 
HETATM   18  C   UNK     0      -5.564  12.894 -21.101  0.00  0.00    -0.027 A 
HETATM   19  C   UNK     0      -5.477  13.446 -19.849  0.00  0.00    -0.031 A 
HETATM   20  C   UNK     0      -5.129  14.900 -19.589  0.00  0.00     0.051 C 
HETATM   21  C   UNK     0      -6.072  10.603 -22.091  0.00  0.00     0.115 C 
HETATM   22  C   UNK     0      -5.642   9.170 -21.882  0.00  0.00     0.022 A 
HETATM   23  N   UNK     0      -4.579   8.713 -21.207  0.00  0.00    -0.361 N 
HETATM   24  C   UNK     0      -4.660   7.368 -21.151  0.00  0.00     0.021 A 
HETATM   25  C   UNK     0      -5.797   6.949 -21.814  0.00  0.00    -0.031 A 
HETATM   26  C   UNK     0      -6.295   5.539 -22.055  0.00  0.00     0.051 C 
HETATM   27  C   UNK     0      -6.442   8.084 -22.291  0.00  0.00    -0.027 A 
HETATM   28  C   UNK     0      -3.737   6.412 -20.416  0.00  0.00     0.115 C 
HETATM   29  H   UNK     0      -2.788   8.656 -18.760  0.00  0.00     0.165 HD
HETATM   30  H   UNK     0      -5.576   9.725 -17.148  0.00  0.00     0.165 HD
HETATM   31  H   UNK     0      -6.426  10.353 -19.161  0.00  0.00     0.165 HD
HETATM   32  H   UNK     0      -3.738   9.333 -20.801  0.00  0.00     0.165 HD
ENDROOT
BRANCH   6  33
HETATM   33  C   UNK     0      -4.335   5.603 -15.466  0.00  0.00     0.051 C 
BRANCH  33  34
HETATM   34  C   UNK     0      -5.831   5.630 -15.263  0.00  0.00     0.114 C 
BRANCH  34  35
HETATM   35  C   UNK     0      -6.272   7.049 -15.387  0.00  0.00     0.139 C 
HETATM   36  O   UNK     0      -6.952   7.420 -16.388  0.00  0.00    -0.650 OA
BRANCH  35  37
HETATM   37  O   UNK     0      -5.971   8.014 -14.434  0.00  0.00    -0.776 OA
HETATM   38  H   UNK     0      -6.659   8.355 -13.781  0.00  0.00     0.167 HD
ENDBRANCH  35  37
ENDBRANCH  34  35
ENDBRANCH  33  34
ENDBRANCH   6  33
BRANCH  27  39
HETATM   39  C   UNK     0      -7.675   8.027 -23.123  0.00  0.00     0.051 C 
BRANCH  39  40
HETATM   40  C   UNK     0      -8.945   7.727 -22.462  0.00  0.00     0.114 C 
BRANCH  40  41
HETATM   41  C   UNK     0      -9.808   6.654 -22.902  0.00  0.00     0.139 C 
HETATM   42  O   UNK     0     -10.292   6.589 -24.040  0.00  0.00    -0.650 OA
BRANCH  41  43
HETATM   43  O   UNK     0     -10.129   5.608 -21.991  0.00  0.00    -0.776 OA
HETATM   44  H   UNK     0     -10.687   4.862 -22.389  0.00  0.00     0.167 HD
ENDBRANCH  41  43
ENDBRANCH  40  41
ENDBRANCH  39  40
ENDBRANCH  27  39
BRANCH  11  45
HETATM   45  C   UNK     0      -3.212  13.589 -15.741  0.00  0.00     0.051 C 
BRANCH  45  46
HETATM   46  C   UNK     0      -2.678  14.297 -16.932  0.00  0.00     0.114 C 
BRANCH  46  47
HETATM   47  C   UNK     0      -3.033  15.738 -16.785  0.00  0.00     0.139 C 
HETATM   48  O   UNK     0      -2.184  16.590 -17.083  0.00  0.00    -0.650 OA
BRANCH  47  49
HETATM   49  O   UNK     0      -4.271  16.114 -16.330  0.00  0.00    -0.776 OA
HETATM   50  H   UNK     0      -4.596  15.886 -15.382  0.00  0.00     0.167 HD
ENDBRANCH  47  49
ENDBRANCH  46  47
ENDBRANCH  45  46
ENDBRANCH  11  45
BRANCH  18  51
HETATM   51  C   UNK     0      -5.319  13.620 -22.398  0.00  0.00     0.051 C 
BRANCH  51  52
HETATM   52  C   UNK     0      -3.865  13.360 -22.764  0.00  0.00     0.114 C 
BRANCH  52  53
HETATM   53  C   UNK     0      -3.711  13.008 -24.189  0.00  0.00     0.139 C 
HETATM   54  O   UNK     0      -3.454  13.891 -25.023  0.00  0.00    -0.650 OA
BRANCH  53  55
HETATM   55  O   UNK     0      -3.856  11.701 -24.586  0.00  0.00    -0.776 OA
HETATM   56  H   UNK     0      -3.130  11.028 -24.655  0.00  0.00     0.167 HD
ENDBRANCH  53  55
ENDBRANCH  52  53
ENDBRANCH  51  52
ENDBRANCH  18  51
TORSDOF 16
ENDMDL
MODEL 14
REMARK VINA RESULT:      -7.0     13.114     16.484
REMARK  16 active torsions:
REMARK  status: ('A' for Active; 'I' for Inactive)
REMARK    1  A    between atoms: C_6  and  C_7 
REMARK    2  A    between atoms: C_7  and  C_8 
REMARK    3  A    between atoms: C_8  and  C_9 
REMARK    4  A    between atoms: C_9  and  O_11 
REMARK    5  A    between atoms: C_16  and  C_17 
REMARK    6  A    between atoms: C_17  and  C_18 
REMARK    7  A    between atoms: C_18  and  C_19 
REMARK    8  A    between atoms: C_19  and  O_21 
REMARK    9  A    between atoms: C_28  and  C_29 
REMARK   10  A    between atoms: C_29  and  C_30 
REMARK   11  A    between atoms: C_30  and  C_31 
REMARK   12  A    between atoms: C_31  and  O_33 
REMARK   13  A    between atoms: C_42  and  C_43 
REMARK   14  A    between atoms: C_43  and  C_44 
REMARK   15  A    between atoms: C_44  and  C_45 
REMARK   16  A    between atoms: C_45  and  O_47 
ROOT
HETATM    1  C   UNK     0       4.945   5.880 -15.623  0.00  0.00     0.051 C 
HETATM    2  C   UNK     0       5.549   6.042 -17.003  0.00  0.00    -0.031 A 
HETATM    3  C   UNK     0       6.110   7.164 -17.592  0.00  0.00     0.021 A 
HETATM    4  N   UNK     0       6.495   6.855 -18.853  0.00  0.00    -0.361 N 
HETATM    5  C   UNK     0       6.199   5.558 -19.077  0.00  0.00     0.022 A 
HETATM    6  C   UNK     0       5.604   5.020 -17.942  0.00  0.00    -0.027 A 
HETATM    7  C   UNK     0       6.501   4.706 -20.270  0.00  0.00     0.115 C 
HETATM    8  C   UNK     0       7.883   4.856 -20.883  0.00  0.00     0.021 A 
HETATM    9  N   UNK     0       9.051   5.086 -20.264  0.00  0.00    -0.361 N 
HETATM   10  C   UNK     0      10.003   5.238 -21.209  0.00  0.00     0.022 A 
HETATM   11  C   UNK     0       9.434   5.093 -22.471  0.00  0.00    -0.027 A 
HETATM   12  C   UNK     0       8.098   4.852 -22.273  0.00  0.00    -0.031 A 
HETATM   13  C   UNK     0       7.079   4.624 -23.366  0.00  0.00     0.051 C 
HETATM   14  C   UNK     0      11.470   5.577 -20.964  0.00  0.00     0.115 C 
HETATM   15  C   UNK     0      11.686   6.911 -20.267  0.00  0.00     0.021 A 
HETATM   16  N   UNK     0      11.213   7.296 -19.067  0.00  0.00    -0.361 N 
HETATM   17  C   UNK     0      11.565   8.564 -18.843  0.00  0.00     0.022 A 
HETATM   18  C   UNK     0      12.312   9.024 -19.946  0.00  0.00    -0.027 A 
HETATM   19  C   UNK     0      12.381   7.979 -20.830  0.00  0.00    -0.031 A 
HETATM   20  C   UNK     0      13.132   8.036 -22.148  0.00  0.00     0.051 C 
HETATM   21  C   UNK     0      11.226   9.478 -17.687  0.00  0.00     0.115 C 
HETATM   22  C   UNK     0       9.871   9.310 -17.040  0.00  0.00     0.022 A 
HETATM   23  N   UNK     0       8.692   9.076 -17.630  0.00  0.00    -0.361 N 
HETATM   24  C   UNK     0       7.774   8.851 -16.669  0.00  0.00     0.021 A 
HETATM   25  C   UNK     0       8.375   8.952 -15.429  0.00  0.00    -0.031 A 
HETATM   26  C   UNK     0       7.752   8.821 -14.054  0.00  0.00     0.051 C 
HETATM   27  C   UNK     0       9.717   9.245 -15.640  0.00  0.00    -0.027 A 
HETATM   28  C   UNK     0       6.319   8.453 -16.848  0.00  0.00     0.115 C 
HETATM   29  H   UNK     0       6.936   7.566 -19.589  0.00  0.00     0.165 HD
HETATM   30  H   UNK     0       9.217   5.091 -19.159  0.00  0.00     0.165 HD
HETATM   31  H   UNK     0      10.660   6.645 -18.340  0.00  0.00     0.165 HD
HETATM   32  H   UNK     0       8.487   9.111 -18.732  0.00  0.00     0.165 HD
ENDROOT
BRANCH   6  33
HETATM   33  C   UNK     0       5.088   3.627 -17.685  0.00  0.00     0.051 C 
BRANCH  33  34
HETATM   34  C   UNK     0       6.033   2.862 -16.789  0.00  0.00     0.114 C 
BRANCH  34  35
HETATM   35  C   UNK     0       5.211   2.192 -15.740  0.00  0.00     0.139 C 
HETATM   36  O   UNK     0       5.457   2.390 -14.515  0.00  0.00    -0.650 OA
BRANCH  35  37
HETATM   37  O   UNK     0       4.157   1.340 -16.046  0.00  0.00    -0.776 OA
HETATM   38  H   UNK     0       3.196   1.607 -15.908  0.00  0.00     0.167 HD
ENDBRANCH  35  37
ENDBRANCH  34  35
ENDBRANCH  33  34
ENDBRANCH   6  33
BRANCH  27  39
HETATM   39  C   UNK     0      10.676   9.499 -14.530  0.00  0.00     0.051 C 
BRANCH  39  40
HETATM   40  C   UNK     0      11.512   8.391 -14.068  0.00  0.00     0.114 C 
BRANCH  40  41
HETATM   41  C   UNK     0      11.228   7.669 -12.849  0.00  0.00     0.139 C 
HETATM   42  O   UNK     0      10.449   8.078 -11.977  0.00  0.00    -0.650 OA
BRANCH  41  43
HETATM   43  O   UNK     0      11.869   6.418 -12.621  0.00  0.00    -0.776 OA
HETATM   44  H   UNK     0      11.268   5.611 -12.740  0.00  0.00     0.167 HD
ENDBRANCH  41  43
ENDBRANCH  40  41
ENDBRANCH  39  40
ENDBRANCH  27  39
BRANCH  11  45
HETATM   45  C   UNK     0      10.099   5.171 -23.819  0.00  0.00     0.051 C 
BRANCH  45  46
HETATM   46  C   UNK     0      10.281   6.555 -24.325  0.00  0.00     0.114 C 
BRANCH  46  47
HETATM   47  C   UNK     0      11.534   6.567 -25.134  0.00  0.00     0.139 C 
HETATM   48  O   UNK     0      12.410   5.728 -24.882  0.00  0.00    -0.650 OA
BRANCH  47  49
HETATM   49  O   UNK     0      11.716   7.489 -26.134  0.00  0.00    -0.776 OA
HETATM   50  H   UNK     0      11.632   7.239 -27.127  0.00  0.00     0.167 HD
ENDBRANCH  47  49
ENDBRANCH  46  47
ENDBRANCH  45  46
ENDBRANCH  11  45
BRANCH  18  51
HETATM   51  C   UNK     0      12.942  10.379 -20.138  0.00  0.00     0.051 C 
BRANCH  51  52
HETATM   52  C   UNK     0      14.339  10.287 -19.542  0.00  0.00     0.114 C 
BRANCH  52  53
HETATM   53  C   UNK     0      14.667  11.472 -18.725  0.00  0.00     0.139 C 
HETATM   54  O   UNK     0      15.524  12.279 -19.119  0.00  0.00    -0.650 OA
BRANCH  53  55
HETATM   55  O   UNK     0      14.023  11.672 -17.529  0.00  0.00    -0.776 OA
HETATM   56  H   UNK     0      13.745  12.549 -17.155  0.00  0.00     0.167 HD
ENDBRANCH  53  55
ENDBRANCH  52  53
ENDBRANCH  51  52
ENDBRANCH  18  51
TORSDOF 16
ENDMDL
MODEL 15
REMARK VINA RESULT:      -7.0      5.620     11.380
REMARK  16 active torsions:
REMARK  status: ('A' for Active; 'I' for Inactive)
REMARK    1  A    between atoms: C_6  and  C_7 
REMARK    2  A    between atoms: C_7  and  C_8 
REMARK    3  A    between atoms: C_8  and  C_9 
REMARK    4  A    between atoms: C_9  and  O_11 
REMARK    5  A    between atoms: C_16  and  C_17 
REMARK    6  A    between atoms: C_17  and  C_18 
REMARK    7  A    between atoms: C_18  and  C_19 
REMARK    8  A    between atoms: C_19  and  O_21 
REMARK    9  A    between atoms: C_28  and  C_29 
REMARK   10  A    between atoms: C_29  and  C_30 
REMARK   11  A    between atoms: C_30  and  C_31 
REMARK   12  A    between atoms: C_31  and  O_33 
REMARK   13  A    between atoms: C_42  and  C_43 
REMARK   14  A    between atoms: C_43  and  C_44 
REMARK   15  A    between atoms: C_44  and  C_45 
REMARK   16  A    between atoms: C_45  and  O_47 
ROOT
HETATM    1  C   UNK     0      -4.973  -2.951 -26.035  0.00  0.00     0.051 C 
HETATM    2  C   UNK     0      -4.477  -1.811 -25.168  0.00  0.00    -0.031 A 
HETATM    3  C   UNK     0      -4.359  -0.464 -25.470  0.00  0.00     0.021 A 
HETATM    4  N   UNK     0      -3.839   0.184 -24.400  0.00  0.00    -0.361 N 
HETATM    5  C   UNK     0      -3.631  -0.720 -23.421  0.00  0.00     0.022 A 
HETATM    6  C   UNK     0      -4.017  -1.979 -23.869  0.00  0.00    -0.027 A 
HETATM    7  C   UNK     0      -3.163  -0.510 -22.015  0.00  0.00     0.115 C 
HETATM    8  C   UNK     0      -3.752   0.675 -21.270  0.00  0.00     0.021 A 
HETATM    9  N   UNK     0      -4.995   1.175 -21.344  0.00  0.00    -0.361 N 
HETATM   10  C   UNK     0      -5.046   2.287 -20.579  0.00  0.00     0.022 A 
HETATM   11  C   UNK     0      -3.804   2.503 -19.989  0.00  0.00    -0.027 A 
HETATM   12  C   UNK     0      -2.984   1.492 -20.420  0.00  0.00    -0.031 A 
HETATM   13  C   UNK     0      -1.534   1.316 -20.030  0.00  0.00     0.051 C 
HETATM   14  C   UNK     0      -6.247   3.214 -20.417  0.00  0.00     0.115 C 
HETATM   15  C   UNK     0      -6.706   3.860 -21.714  0.00  0.00     0.021 A 
HETATM   16  N   UNK     0      -7.111   3.244 -22.840  0.00  0.00    -0.361 N 
HETATM   17  C   UNK     0      -7.363   4.162 -23.776  0.00  0.00     0.022 A 
HETATM   18  C   UNK     0      -7.120   5.438 -23.231  0.00  0.00    -0.027 A 
HETATM   19  C   UNK     0      -6.710   5.236 -21.939  0.00  0.00    -0.031 A 
HETATM   20  C   UNK     0      -6.376   6.358 -20.973  0.00  0.00     0.051 C 
HETATM   21  C   UNK     0      -7.772   3.989 -25.221  0.00  0.00     0.115 C 
HETATM   22  C   UNK     0      -7.228   2.789 -25.962  0.00  0.00     0.022 A 
HETATM   23  N   UNK     0      -5.996   2.267 -25.904  0.00  0.00    -0.361 N 
HETATM   24  C   UNK     0      -5.990   1.119 -26.611  0.00  0.00     0.021 A 
HETATM   25  C   UNK     0      -7.246   0.902 -27.144  0.00  0.00    -0.031 A 
HETATM   26  C   UNK     0      -7.720  -0.225 -28.039  0.00  0.00     0.051 C 
HETATM   27  C   UNK     0      -8.056   1.958 -26.743  0.00  0.00    -0.027 A 
HETATM   28  C   UNK     0      -4.850   0.126 -26.762  0.00  0.00     0.115 C 
HETATM   29  H   UNK     0      -3.585   1.268 -24.359  0.00  0.00     0.165 HD
HETATM   30  H   UNK     0      -5.853   0.718 -21.895  0.00  0.00     0.165 HD
HETATM   31  H   UNK     0      -7.268   2.141 -22.963  0.00  0.00     0.165 HD
HETATM   32  H   UNK     0      -5.107   2.727 -25.400  0.00  0.00     0.165 HD
ENDROOT
BRANCH   6  33
HETATM   33  C   UNK     0      -3.980  -3.313 -23.166  0.00  0.00     0.051 C 
BRANCH  33  34
HETATM   34  C   UNK     0      -2.713  -4.061 -23.505  0.00  0.00     0.114 C 
BRANCH  34  35
HETATM   35  C   UNK     0      -3.082  -5.491 -23.712  0.00  0.00     0.139 C 
HETATM   36  O   UNK     0      -3.146  -6.282 -22.726  0.00  0.00    -0.650 OA
BRANCH  35  37
HETATM   37  O   UNK     0      -3.370  -6.017 -24.966  0.00  0.00    -0.776 OA
HETATM   38  H   UNK     0      -3.735  -6.948 -25.084  0.00  0.00     0.167 HD
ENDBRANCH  35  37
ENDBRANCH  34  35
ENDBRANCH  33  34
ENDBRANCH   6  33
BRANCH  27  39
HETATM   39  C   UNK     0      -9.469   2.109 -27.184  0.00  0.00     0.051 C 
BRANCH  39  40
HETATM   40  C   UNK     0     -10.498   1.330 -26.495  0.00  0.00     0.114 C 
BRANCH  40  41
HETATM   41  C   UNK     0     -11.233   0.273 -27.152  0.00  0.00     0.139 C 
HETATM   42  O   UNK     0     -11.630   0.341 -28.323  0.00  0.00    -0.650 OA
BRANCH  41  43
HETATM   43  O   UNK     0     -11.525  -0.918 -26.429  0.00  0.00    -0.776 OA
HETATM   44  H   UNK     0     -12.349  -0.861 -25.842  0.00  0.00     0.167 HD
ENDBRANCH  41  43
ENDBRANCH  40  41
ENDBRANCH  39  40
ENDBRANCH  27  39
BRANCH  11  45
HETATM   45  C   UNK     0      -3.385   3.606 -19.055  0.00  0.00     0.051 C 
BRANCH  45  46
HETATM   46  C   UNK     0      -3.978   3.507 -17.696  0.00  0.00     0.114 C 
BRANCH  46  47
HETATM   47  C   UNK     0      -4.528   4.851 -17.356  0.00  0.00     0.139 C 
HETATM   48  O   UNK     0      -4.364   5.779 -18.160  0.00  0.00    -0.650 OA
BRANCH  47  49
HETATM   49  O   UNK     0      -5.200   5.057 -16.177  0.00  0.00    -0.776 OA
HETATM   50  H   UNK     0      -4.863   5.716 -15.466  0.00  0.00     0.167 HD
ENDBRANCH  47  49
ENDBRANCH  46  47
ENDBRANCH  45  46
ENDBRANCH  11  45
BRANCH  18  51
HETATM   51  C   UNK     0      -7.289   6.778 -23.898  0.00  0.00     0.051 C 
BRANCH  51  52
HETATM   52  C   UNK     0      -8.507   7.424 -23.254  0.00  0.00     0.114 C 
BRANCH  52  53
HETATM   53  C   UNK     0      -9.749   6.697 -23.577  0.00  0.00     0.139 C 
HETATM   54  O   UNK     0     -10.143   6.631 -24.752  0.00  0.00    -0.650 OA
BRANCH  53  55
HETATM   55  O   UNK     0     -10.468   6.099 -22.570  0.00  0.00    -0.776 OA
HETATM   56  H   UNK     0     -11.069   6.560 -21.929  0.00  0.00     0.167 HD
ENDBRANCH  53  55
ENDBRANCH  52  53
ENDBRANCH  51  52
ENDBRANCH  18  51
TORSDOF 16
ENDMDL
MODEL 16
REMARK VINA RESULT:      -7.0      2.493      7.422
REMARK  16 active torsions:
REMARK  status: ('A' for Active; 'I' for Inactive)
REMARK    1  A    between atoms: C_6  and  C_7 
REMARK    2  A    between atoms: C_7  and  C_8 
REMARK    3  A    between atoms: C_8  and  C_9 
REMARK    4  A    between atoms: C_9  and  O_11 
REMARK    5  A    between atoms: C_16  and  C_17 
REMARK    6  A    between atoms: C_17  and  C_18 
REMARK    7  A    between atoms: C_18  and  C_19 
REMARK    8  A    between atoms: C_19  and  O_21 
REMARK    9  A    between atoms: C_28  and  C_29 
REMARK   10  A    between atoms: C_29  and  C_30 
REMARK   11  A    between atoms: C_30  and  C_31 
REMARK   12  A    between atoms: C_31  and  O_33 
REMARK   13  A    between atoms: C_42  and  C_43 
REMARK   14  A    between atoms: C_43  and  C_44 
REMARK   15  A    between atoms: C_44  and  C_45 
REMARK   16  A    between atoms: C_45  and  O_47 
ROOT
HETATM    1  C   UNK     0      -2.915  13.128 -19.493  0.00  0.00     0.051 C 
HETATM    2  C   UNK     0      -3.039  11.867 -20.323  0.00  0.00    -0.031 A 
HETATM    3  C   UNK     0      -2.459  10.624 -20.127  0.00  0.00     0.021 A 
HETATM    4  N   UNK     0      -2.825   9.801 -21.139  0.00  0.00    -0.361 N 
HETATM    5  C   UNK     0      -3.632  10.491 -21.971  0.00  0.00     0.022 A 
HETATM    6  C   UNK     0      -3.785  11.788 -21.492  0.00  0.00    -0.027 A 
HETATM    7  C   UNK     0      -4.377  10.021 -23.182  0.00  0.00     0.115 C 
HETATM    8  C   UNK     0      -5.062   8.670 -23.078  0.00  0.00     0.021 A 
HETATM    9  N   UNK     0      -5.663   8.116 -22.014  0.00  0.00    -0.361 N 
HETATM   10  C   UNK     0      -6.050   6.868 -22.353  0.00  0.00     0.022 A 
HETATM   11  C   UNK     0      -5.696   6.614 -23.675  0.00  0.00    -0.027 A 
HETATM   12  C   UNK     0      -5.074   7.745 -24.138  0.00  0.00    -0.031 A 
HETATM   13  C   UNK     0      -4.521   7.930 -25.534  0.00  0.00     0.051 C 
HETATM   14  C   UNK     0      -6.718   5.850 -21.433  0.00  0.00     0.115 C 
HETATM   15  C   UNK     0      -5.875   5.463 -20.229  0.00  0.00     0.021 A 
HETATM   16  N   UNK     0      -5.389   6.274 -19.271  0.00  0.00    -0.361 N 
HETATM   17  C   UNK     0      -4.639   5.559 -18.429  0.00  0.00     0.022 A 
HETATM   18  C   UNK     0      -4.645   4.215 -18.853  0.00  0.00    -0.027 A 
HETATM   19  C   UNK     0      -5.423   4.168 -19.981  0.00  0.00    -0.031 A 
HETATM   20  C   UNK     0      -5.725   2.892 -20.744  0.00  0.00     0.051 C 
HETATM   21  C   UNK     0      -3.821   6.004 -17.238  0.00  0.00     0.115 C 
HETATM   22  C   UNK     0      -3.170   7.366 -17.309  0.00  0.00     0.022 A 
HETATM   23  N   UNK     0      -2.567   7.944 -18.356  0.00  0.00    -0.361 N 
HETATM   24  C   UNK     0      -2.260   9.213 -18.020  0.00  0.00     0.021 A 
HETATM   25  C   UNK     0      -2.666   9.455 -16.722  0.00  0.00    -0.031 A 
HETATM   26  C   UNK     0      -2.504  10.711 -15.891  0.00  0.00     0.051 C 
HETATM   27  C   UNK     0      -3.250   8.287 -16.245  0.00  0.00    -0.027 A 
HETATM   28  C   UNK     0      -1.652  10.288 -18.905  0.00  0.00     0.115 C 
HETATM   29  H   UNK     0      -2.479   8.751 -21.279  0.00  0.00     0.165 HD
HETATM   30  H   UNK     0      -5.861   8.622 -21.037  0.00  0.00     0.165 HD
HETATM   31  H   UNK     0      -5.618   7.366 -19.158  0.00  0.00     0.165 HD
HETATM   32  H   UNK     0      -2.314   7.448 -19.329  0.00  0.00     0.165 HD
ENDROOT
BRANCH   6  33
HETATM   33  C   UNK     0      -4.574  12.943 -22.055  0.00  0.00     0.051 C 
BRANCH  33  34
HETATM   34  C   UNK     0      -6.032  12.831 -21.677  0.00  0.00     0.114 C 
BRANCH  34  35
HETATM   35  C   UNK     0      -6.500  14.193 -21.292  0.00  0.00     0.139 C 
HETATM   36  O   UNK     0      -5.896  14.843 -20.390  0.00  0.00    -0.650 OA
BRANCH  35  37
HETATM   37  O   UNK     0      -7.594  14.806 -21.890  0.00  0.00    -0.776 OA
HETATM   38  H   UNK     0      -7.619  15.010 -22.877  0.00  0.00     0.167 HD
ENDBRANCH  35  37
ENDBRANCH  34  35
ENDBRANCH  33  34
ENDBRANCH   6  33
BRANCH  27  39
HETATM   39  C   UNK     0      -3.747   8.140 -14.850  0.00  0.00     0.051 C 
BRANCH  39  40
HETATM   40  C   UNK     0      -5.175   8.329 -14.598  0.00  0.00     0.114 C 
BRANCH  40  41
HETATM   41  C   UNK     0      -6.140   8.432 -15.670  0.00  0.00     0.139 C 
HETATM   42  O   UNK     0      -6.775   7.465 -16.113  0.00  0.00    -0.650 OA
BRANCH  41  43
HETATM   43  O   UNK     0      -6.385   9.705 -16.259  0.00  0.00    -0.776 OA
HETATM   44  H   UNK     0      -7.016   9.685 -17.052  0.00  0.00     0.167 HD
ENDBRANCH  41  43
ENDBRANCH  40  41
ENDBRANCH  39  40
ENDBRANCH  27  39
BRANCH  11  45
HETATM   45  C   UNK     0      -5.927   5.369 -24.489  0.00  0.00     0.051 C 
BRANCH  45  46
HETATM   46  C   UNK     0      -7.360   5.030 -24.685  0.00  0.00     0.114 C 
BRANCH  46  47
HETATM   47  C   UNK     0      -8.028   6.241 -25.242  0.00  0.00     0.139 C 
HETATM   48  O   UNK     0      -7.715   6.620 -26.380  0.00  0.00    -0.650 OA
BRANCH  47  49
HETATM   49  O   UNK     0      -8.968   6.923 -24.512  0.00  0.00    -0.776 OA
HETATM   50  H   UNK     0      -8.820   7.168 -23.526  0.00  0.00     0.167 HD
ENDBRANCH  47  49
ENDBRANCH  46  47
ENDBRANCH  45  46
ENDBRANCH  11  45
BRANCH  18  51
HETATM   51  C   UNK     0      -3.963   3.037 -18.207  0.00  0.00     0.051 C 
BRANCH  51  52
HETATM   52  C   UNK     0      -2.772   2.697 -19.091  0.00  0.00     0.114 C 
BRANCH  52  53
HETATM   53  C   UNK     0      -2.645   1.242 -19.306  0.00  0.00     0.139 C 
HETATM   54  O   UNK     0      -1.558   0.758 -19.657  0.00  0.00    -0.650 OA
BRANCH  53  55
HETATM   55  O   UNK     0      -3.738   0.430 -19.120  0.00  0.00    -0.776 OA
HETATM   56  H   UNK     0      -4.350   0.103 -19.829  0.00  0.00     0.167 HD
ENDBRANCH  53  55
ENDBRANCH  52  53
ENDBRANCH  51  52
ENDBRANCH  18  51
TORSDOF 16
ENDMDL
MODEL 17
REMARK VINA RESULT:      -7.0      5.067     10.698
REMARK  16 active torsions:
REMARK  status: ('A' for Active; 'I' for Inactive)
REMARK    1  A    between atoms: C_6  and  C_7 
REMARK    2  A    between atoms: C_7  and  C_8 
REMARK    3  A    between atoms: C_8  and  C_9 
REMARK    4  A    between atoms: C_9  and  O_11 
REMARK    5  A    between atoms: C_16  and  C_17 
REMARK    6  A    between atoms: C_17  and  C_18 
REMARK    7  A    between atoms: C_18  and  C_19 
REMARK    8  A    between atoms: C_19  and  O_21 
REMARK    9  A    between atoms: C_28  and  C_29 
REMARK   10  A    between atoms: C_29  and  C_30 
REMARK   11  A    between atoms: C_30  and  C_31 
REMARK   12  A    between atoms: C_31  and  O_33 
REMARK   13  A    between atoms: C_42  and  C_43 
REMARK   14  A    between atoms: C_43  and  C_44 
REMARK   15  A    between atoms: C_44  and  C_45 
REMARK   16  A    between atoms: C_45  and  O_47 
ROOT
HETATM    1  C   UNK     0      -4.256   0.674 -22.513  0.00  0.00     0.051 C 
HETATM    2  C   UNK     0      -3.993   1.440 -21.233  0.00  0.00    -0.031 A 
HETATM    3  C   UNK     0      -2.887   1.405 -20.398  0.00  0.00     0.021 A 
HETATM    4  N   UNK     0      -3.100   2.235 -19.349  0.00  0.00    -0.361 N 
HETATM    5  C   UNK     0      -4.313   2.804 -19.501  0.00  0.00     0.022 A 
HETATM    6  C   UNK     0      -4.901   2.327 -20.668  0.00  0.00    -0.027 A 
HETATM    7  C   UNK     0      -4.981   3.858 -18.674  0.00  0.00     0.115 C 
HETATM    8  C   UNK     0      -4.112   5.016 -18.215  0.00  0.00     0.021 A 
HETATM    9  N   UNK     0      -3.104   5.615 -18.867  0.00  0.00    -0.361 N 
HETATM   10  C   UNK     0      -2.558   6.533 -18.042  0.00  0.00     0.022 A 
HETATM   11  C   UNK     0      -3.239   6.532 -16.828  0.00  0.00    -0.027 A 
HETATM   12  C   UNK     0      -4.219   5.578 -16.930  0.00  0.00    -0.031 A 
HETATM   13  C   UNK     0      -5.214   5.228 -15.847  0.00  0.00     0.051 C 
HETATM   14  C   UNK     0      -1.344   7.408 -18.344  0.00  0.00     0.115 C 
HETATM   15  C   UNK     0      -0.072   6.622 -18.616  0.00  0.00     0.021 A 
HETATM   16  N   UNK     0       0.134   5.698 -19.574  0.00  0.00    -0.361 N 
HETATM   17  C   UNK     0       1.360   5.189 -19.436  0.00  0.00     0.022 A 
HETATM   18  C   UNK     0       1.987   5.819 -18.342  0.00  0.00    -0.027 A 
HETATM   19  C   UNK     0       1.080   6.715 -17.838  0.00  0.00    -0.031 A 
HETATM   20  C   UNK     0       1.366   7.636 -16.666  0.00  0.00     0.051 C 
HETATM   21  C   UNK     0       2.046   4.082 -20.205  0.00  0.00     0.115 C 
HETATM   22  C   UNK     0       1.186   2.946 -20.706  0.00  0.00     0.022 A 
HETATM   23  N   UNK     0       0.173   2.332 -20.080  0.00  0.00    -0.361 N 
HETATM   24  C   UNK     0      -0.405   1.477 -20.947  0.00  0.00     0.021 A 
HETATM   25  C   UNK     0       0.257   1.534 -22.158  0.00  0.00    -0.031 A 
HETATM   26  C   UNK     0       0.005   0.737 -23.421  0.00  0.00     0.051 C 
HETATM   27  C   UNK     0       1.280   2.467 -22.028  0.00  0.00    -0.027 A 
HETATM   28  C   UNK     0      -1.644   0.627 -20.727  0.00  0.00     0.115 C 
HETATM   29  H   UNK     0      -2.408   2.382 -18.487  0.00  0.00     0.165 HD
HETATM   30  H   UNK     0      -2.808   5.428 -19.928  0.00  0.00     0.165 HD
HETATM   31  H   UNK     0      -0.583   5.433 -20.394  0.00  0.00     0.165 HD
HETATM   32  H   UNK     0      -0.116   2.466 -19.005  0.00  0.00     0.165 HD
ENDROOT
BRANCH   6  33
HETATM   33  C   UNK     0      -6.242   2.644 -21.278  0.00  0.00     0.051 C 
BRANCH  33  34
HETATM   34  C   UNK     0      -6.188   3.944 -22.046  0.00  0.00     0.114 C 
BRANCH  34  35
HETATM   35  C   UNK     0      -7.581   4.467 -22.138  0.00  0.00     0.139 C 
HETATM   36  O   UNK     0      -8.551   3.671 -22.307  0.00  0.00    -0.650 OA
BRANCH  35  37
HETATM   37  O   UNK     0      -7.881   5.820 -22.043  0.00  0.00    -0.776 OA
HETATM   38  H   UNK     0      -8.685   6.155 -21.535  0.00  0.00     0.167 HD
ENDBRANCH  35  37
ENDBRANCH  34  35
ENDBRANCH  33  34
ENDBRANCH   6  33
BRANCH  27  39
HETATM   39  C   UNK     0       2.260   2.751 -23.112  0.00  0.00     0.051 C 
BRANCH  39  40
HETATM   40  C   UNK     0       3.624   2.244 -22.965  0.00  0.00     0.114 C 
BRANCH  40  41
HETATM   41  C   UNK     0       3.937   1.107 -22.128  0.00  0.00     0.139 C 
HETATM   42  O   UNK     0       3.804  -0.069 -22.495  0.00  0.00    -0.650 OA
BRANCH  41  43
HETATM   43  O   UNK     0       4.424   1.332 -20.810  0.00  0.00    -0.776 OA
HETATM   44  H   UNK     0       5.337   0.933 -20.627  0.00  0.00     0.167 HD
ENDBRANCH  41  43
ENDBRANCH  40  41
ENDBRANCH  39  40
ENDBRANCH  27  39
BRANCH  11  45
HETATM   45  C   UNK     0      -2.996   7.384 -15.611  0.00  0.00     0.051 C 
BRANCH  45  46
HETATM   46  C   UNK     0      -3.679   8.702 -15.649  0.00  0.00     0.114 C 
BRANCH  46  47
HETATM   47  C   UNK     0      -4.521   8.799 -14.422  0.00  0.00     0.139 C 
HETATM   48  O   UNK     0      -4.014   9.261 -13.391  0.00  0.00    -0.650 OA
BRANCH  47  49
HETATM   49  O   UNK     0      -5.829   8.383 -14.434  0.00  0.00    -0.776 OA
HETATM   50  H   UNK     0      -6.239   7.852 -13.656  0.00  0.00     0.167 HD
ENDBRANCH  47  49
ENDBRANCH  46  47
ENDBRANCH  45  46
ENDBRANCH  11  45
BRANCH  18  51
HETATM   51  C   UNK     0       3.382   5.594 -17.819  0.00  0.00     0.051 C 
BRANCH  51  52
HETATM   52  C   UNK     0       3.270   4.506 -16.761  0.00  0.00     0.114 C 
BRANCH  52  53
HETATM   53  C   UNK     0       4.198   3.388 -17.022  0.00  0.00     0.139 C 
HETATM   54  O   UNK     0       5.307   3.358 -16.464  0.00  0.00    -0.650 OA
BRANCH  53  55
HETATM   55  O   UNK     0       3.829   2.386 -17.886  0.00  0.00    -0.776 OA
HETATM   56  H   UNK     0       2.963   1.900 -17.882  0.00  0.00     0.167 HD
ENDBRANCH  53  55
ENDBRANCH  52  53
ENDBRANCH  51  52
ENDBRANCH  18  51
TORSDOF 16
ENDMDL
MODEL 18
REMARK VINA RESULT:      -7.0      2.618      8.232
REMARK  16 active torsions:
REMARK  status: ('A' for Active; 'I' for Inactive)
REMARK    1  A    between atoms: C_6  and  C_7 
REMARK    2  A    between atoms: C_7  and  C_8 
REMARK    3  A    between atoms: C_8  and  C_9 
REMARK    4  A    between atoms: C_9  and  O_11 
REMARK    5  A    between atoms: C_16  and  C_17 
REMARK    6  A    between atoms: C_17  and  C_18 
REMARK    7  A    between atoms: C_18  and  C_19 
REMARK    8  A    between atoms: C_19  and  O_21 
REMARK    9  A    between atoms: C_28  and  C_29 
REMARK   10  A    between atoms: C_29  and  C_30 
REMARK   11  A    between atoms: C_30  and  C_31 
REMARK   12  A    between atoms: C_31  and  O_33 
REMARK   13  A    between atoms: C_42  and  C_43 
REMARK   14  A    between atoms: C_43  and  C_44 
REMARK   15  A    between atoms: C_44  and  C_45 
REMARK   16  A    between atoms: C_45  and  O_47 
ROOT
HETATM    1  C   UNK     0      -4.622   4.779 -16.440  0.00  0.00     0.051 C 
HETATM    2  C   UNK     0      -4.973   5.584 -17.675  0.00  0.00    -0.031 A 
HETATM    3  C   UNK     0      -5.751   6.725 -17.789  0.00  0.00     0.021 A 
HETATM    4  N   UNK     0      -5.818   7.085 -19.093  0.00  0.00    -0.361 N 
HETATM    5  C   UNK     0      -5.093   6.203 -19.811  0.00  0.00     0.022 A 
HETATM    6  C   UNK     0      -4.552   5.249 -18.955  0.00  0.00    -0.027 A 
HETATM    7  C   UNK     0      -4.769   6.202 -21.273  0.00  0.00     0.115 C 
HETATM    8  C   UNK     0      -4.394   7.539 -21.888  0.00  0.00     0.021 A 
HETATM    9  N   UNK     0      -3.701   8.548 -21.338  0.00  0.00    -0.361 N 
HETATM   10  C   UNK     0      -3.688   9.574 -22.214  0.00  0.00     0.022 A 
HETATM   11  C   UNK     0      -4.383   9.213 -23.365  0.00  0.00    -0.027 A 
HETATM   12  C   UNK     0      -4.831   7.932 -23.166  0.00  0.00    -0.031 A 
HETATM   13  C   UNK     0      -5.635   7.123 -24.159  0.00  0.00     0.051 C 
HETATM   14  C   UNK     0      -3.067  10.949 -21.983  0.00  0.00     0.115 C 
HETATM   15  C   UNK     0      -3.675  11.710 -20.815  0.00  0.00     0.021 A 
HETATM   16  N   UNK     0      -3.736  11.325 -19.526  0.00  0.00    -0.361 N 
HETATM   17  C   UNK     0      -4.410  12.240 -18.827  0.00  0.00     0.022 A 
HETATM   18  C   UNK     0      -4.799  13.276 -19.699  0.00  0.00    -0.027 A 
HETATM   19  C   UNK     0      -4.331  12.932 -20.941  0.00  0.00    -0.031 A 
HETATM   20  C   UNK     0      -4.502  13.798 -22.176  0.00  0.00     0.051 C 
HETATM   21  C   UNK     0      -4.814  12.246 -17.370  0.00  0.00     0.115 C 
HETATM   22  C   UNK     0      -5.147  10.918 -16.733  0.00  0.00     0.022 A 
HETATM   23  N   UNK     0      -5.832   9.893 -17.258  0.00  0.00    -0.361 N 
HETATM   24  C   UNK     0      -5.766   8.855 -16.401  0.00  0.00     0.021 A 
HETATM   25  C   UNK     0      -5.030   9.223 -15.291  0.00  0.00    -0.031 A 
HETATM   26  C   UNK     0      -4.715   8.419 -14.046  0.00  0.00     0.051 C 
HETATM   27  C   UNK     0      -4.623  10.539 -15.480  0.00  0.00    -0.027 A 
HETATM   28  C   UNK     0      -6.310   7.451 -16.598  0.00  0.00     0.115 C 
HETATM   29  H   UNK     0      -6.411   7.936 -19.502  0.00  0.00     0.165 HD
HETATM   30  H   UNK     0      -3.178   8.521 -20.351  0.00  0.00     0.165 HD
HETATM   31  H   UNK     0      -3.252  10.412 -19.091  0.00  0.00     0.165 HD
HETATM   32  H   UNK     0      -6.405   9.908 -18.222  0.00  0.00     0.165 HD
ENDROOT
BRANCH   6  33
HETATM   33  C   UNK     0      -3.679   4.057 -19.258  0.00  0.00     0.051 C 
BRANCH  33  34
HETATM   34  C   UNK     0      -4.521   2.833 -19.532  0.00  0.00     0.114 C 
BRANCH  34  35
HETATM   35  C   UNK     0      -3.698   1.639 -19.186  0.00  0.00     0.139 C 
HETATM   36  O   UNK     0      -2.475   1.772 -18.890  0.00  0.00    -0.650 OA
BRANCH  35  37
HETATM   37  O   UNK     0      -4.218   0.350 -19.168  0.00  0.00    -0.776 OA
HETATM   38  H   UNK     0      -4.247  -0.203 -18.327  0.00  0.00     0.167 HD
ENDBRANCH  35  37
ENDBRANCH  34  35
ENDBRANCH  33  34
ENDBRANCH   6  33
BRANCH  27  39
HETATM   39  C   UNK     0      -3.864  11.308 -14.457  0.00  0.00     0.051 C 
BRANCH  39  40
HETATM   40  C   UNK     0      -2.404  11.330 -14.546  0.00  0.00     0.114 C 
BRANCH  40  41
HETATM   41  C   UNK     0      -1.559  11.218 -13.379  0.00  0.00     0.139 C 
HETATM   42  O   UNK     0      -1.331  12.159 -12.607  0.00  0.00    -0.650 OA
BRANCH  41  43
HETATM   43  O   UNK     0      -0.946   9.966 -13.087  0.00  0.00    -0.776 OA
HETATM   44  H   UNK     0      -0.073   9.803 -13.573  0.00  0.00     0.167 HD
ENDBRANCH  41  43
ENDBRANCH  40  41
ENDBRANCH  39  40
ENDBRANCH  27  39
BRANCH  11  45
HETATM   45  C   UNK     0      -4.626  10.021 -24.611  0.00  0.00     0.051 C 
BRANCH  45  46
HETATM   46  C   UNK     0      -3.507   9.982 -25.586  0.00  0.00     0.114 C 
BRANCH  46  47
HETATM   47  C   UNK     0      -2.943  11.360 -25.668  0.00  0.00     0.139 C 
HETATM   48  O   UNK     0      -1.727  11.492 -25.867  0.00  0.00    -0.650 OA
BRANCH  47  49
HETATM   49  O   UNK     0      -3.751  12.459 -25.524  0.00  0.00    -0.776 OA
HETATM   50  H   UNK     0      -3.370  13.410 -25.448  0.00  0.00     0.167 HD
ENDBRANCH  47  49
ENDBRANCH  46  47
ENDBRANCH  45  46
ENDBRANCH  11  45
BRANCH  18  51
HETATM   51  C   UNK     0      -5.556  14.534 -19.364  0.00  0.00     0.051 C 
BRANCH  51  52
HETATM   52  C   UNK     0      -4.510  15.619 -19.157  0.00  0.00     0.114 C 
BRANCH  52  53
HETATM   53  C   UNK     0      -4.001  15.635 -17.772  0.00  0.00     0.139 C 
HETATM   54  O   UNK     0      -2.778  15.618 -17.558  0.00  0.00    -0.650 OA
BRANCH  53  55
HETATM   55  O   UNK     0      -4.888  15.664 -16.722  0.00  0.00    -0.776 OA
HETATM   56  H   UNK     0      -4.902  16.333 -15.989  0.00  0.00     0.167 HD
ENDBRANCH  53  55
ENDBRANCH  52  53
ENDBRANCH  51  52
ENDBRANCH  18  51
TORSDOF 16
ENDMDL
MODEL 19
REMARK VINA RESULT:      -6.9      4.054      6.652
REMARK  16 active torsions:
REMARK  status: ('A' for Active; 'I' for Inactive)
REMARK    1  A    between atoms: C_6  and  C_7 
REMARK    2  A    between atoms: C_7  and  C_8 
REMARK    3  A    between atoms: C_8  and  C_9 
REMARK    4  A    between atoms: C_9  and  O_11 
REMARK    5  A    between atoms: C_16  and  C_17 
REMARK    6  A    between atoms: C_17  and  C_18 
REMARK    7  A    between atoms: C_18  and  C_19 
REMARK    8  A    between atoms: C_19  and  O_21 
REMARK    9  A    between atoms: C_28  and  C_29 
REMARK   10  A    between atoms: C_29  and  C_30 
REMARK   11  A    between atoms: C_30  and  C_31 
REMARK   12  A    between atoms: C_31  and  O_33 
REMARK   13  A    between atoms: C_42  and  C_43 
REMARK   14  A    between atoms: C_43  and  C_44 
REMARK   15  A    between atoms: C_44  and  C_45 
REMARK   16  A    between atoms: C_45  and  O_47 
ROOT
HETATM    1  C   UNK     0      -4.353  10.078 -15.207  0.00  0.00     0.051 C 
HETATM    2  C   UNK     0      -3.224   9.092 -15.432  0.00  0.00    -0.031 A 
HETATM    3  C   UNK     0      -3.280   7.724 -15.648  0.00  0.00     0.021 A 
HETATM    4  N   UNK     0      -2.020   7.244 -15.767  0.00  0.00    -0.361 N 
HETATM    5  C   UNK     0      -1.162   8.277 -15.642  0.00  0.00     0.022 A 
HETATM    6  C   UNK     0      -1.882   9.448 -15.428  0.00  0.00    -0.027 A 
HETATM    7  C   UNK     0       0.328   8.301 -15.787  0.00  0.00     0.115 C 
HETATM    8  C   UNK     0       0.913   7.505 -16.940  0.00  0.00     0.021 A 
HETATM    9  N   UNK     0       0.406   7.319 -18.169  0.00  0.00    -0.361 N 
HETATM   10  C   UNK     0       1.218   6.468 -18.832  0.00  0.00     0.022 A 
HETATM   11  C   UNK     0       2.281   6.104 -18.011  0.00  0.00    -0.027 A 
HETATM   12  C   UNK     0       2.095   6.754 -16.818  0.00  0.00    -0.031 A 
HETATM   13  C   UNK     0       3.013   6.662 -15.620  0.00  0.00     0.051 C 
HETATM   14  C   UNK     0       0.996   5.924 -20.241  0.00  0.00     0.115 C 
HETATM   15  C   UNK     0      -0.284   5.119 -20.396  0.00  0.00     0.021 A 
HETATM   16  N   UNK     0      -1.545   5.529 -20.165  0.00  0.00    -0.361 N 
HETATM   17  C   UNK     0      -2.380   4.504 -20.349  0.00  0.00     0.022 A 
HETATM   18  C   UNK     0      -1.627   3.374 -20.728  0.00  0.00    -0.027 A 
HETATM   19  C   UNK     0      -0.316   3.773 -20.755  0.00  0.00    -0.031 A 
HETATM   20  C   UNK     0       0.834   2.866 -21.152  0.00  0.00     0.051 C 
HETATM   21  C   UNK     0      -3.876   4.421 -20.150  0.00  0.00     0.115 C 
HETATM   22  C   UNK     0      -4.478   5.242 -19.033  0.00  0.00     0.022 A 
HETATM   23  N   UNK     0      -3.994   5.448 -17.802  0.00  0.00    -0.361 N 
HETATM   24  C   UNK     0      -4.775   6.359 -17.187  0.00  0.00     0.021 A 
HETATM   25  C   UNK     0      -5.793   6.740 -18.040  0.00  0.00    -0.031 A 
HETATM   26  C   UNK     0      -6.936   7.702 -17.789  0.00  0.00     0.051 C 
HETATM   27  C   UNK     0      -5.624   6.038 -19.228  0.00  0.00    -0.027 A 
HETATM   28  C   UNK     0      -4.575   6.981 -15.815  0.00  0.00     0.115 C 
HETATM   29  H   UNK     0      -1.744   6.172 -15.900  0.00  0.00     0.165 HD
HETATM   30  H   UNK     0      -0.497   7.825 -18.589  0.00  0.00     0.165 HD
HETATM   31  H   UNK     0      -1.858   6.575 -19.912  0.00  0.00     0.165 HD
HETATM   32  H   UNK     0      -3.120   4.921 -17.339  0.00  0.00     0.165 HD
ENDROOT
BRANCH   6  33
HETATM   33  C   UNK     0      -1.397  10.861 -15.221  0.00  0.00     0.051 C 
BRANCH  33  34
HETATM   34  C   UNK     0      -1.013  11.088 -13.778  0.00  0.00     0.114 C 
BRANCH  34  35
HETATM   35  C   UNK     0      -1.575  12.407 -13.369  0.00  0.00     0.139 C 
HETATM   36  O   UNK     0      -0.871  13.222 -12.704  0.00  0.00    -0.650 OA
BRANCH  35  37
HETATM   37  O   UNK     0      -2.868  12.803 -13.690  0.00  0.00    -0.776 OA
HETATM   38  H   UNK     0      -3.532  13.082 -12.986  0.00  0.00     0.167 HD
ENDBRANCH  35  37
ENDBRANCH  34  35
ENDBRANCH  33  34
ENDBRANCH   6  33
BRANCH  27  39
HETATM   39  C   UNK     0      -6.576   6.133 -20.368  0.00  0.00     0.051 C 
BRANCH  39  40
HETATM   40  C   UNK     0      -6.394   7.215 -21.335  0.00  0.00     0.114 C 
BRANCH  40  41
HETATM   41  C   UNK     0      -7.447   8.156 -21.646  0.00  0.00     0.139 C 
HETATM   42  O   UNK     0      -7.743   9.114 -20.920  0.00  0.00    -0.650 OA
BRANCH  41  43
HETATM   43  O   UNK     0      -8.193   7.986 -22.847  0.00  0.00    -0.776 OA
HETATM   44  H   UNK     0      -9.088   8.460 -22.854  0.00  0.00     0.167 HD
ENDBRANCH  41  43
ENDBRANCH  40  41
ENDBRANCH  39  40
ENDBRANCH  27  39
BRANCH  11  45
HETATM   45  C   UNK     0       3.436   5.188 -18.316  0.00  0.00     0.051 C 
BRANCH  45  46
HETATM   46  C   UNK     0       3.137   3.747 -18.111  0.00  0.00     0.114 C 
BRANCH  46  47
HETATM   47  C   UNK     0       4.024   3.264 -17.014  0.00  0.00     0.139 C 
HETATM   48  O   UNK     0       3.506   2.901 -15.949  0.00  0.00    -0.650 OA
BRANCH  47  49
HETATM   49  O   UNK     0       5.386   3.223 -17.179  0.00  0.00    -0.776 OA
HETATM   50  H   UNK     0       5.857   3.710 -17.951  0.00  0.00     0.167 HD
ENDBRANCH  47  49
ENDBRANCH  46  47
ENDBRANCH  45  46
ENDBRANCH  11  45
BRANCH  18  51
HETATM   51  C   UNK     0      -2.133   1.995 -21.066  0.00  0.00     0.051 C 
BRANCH  51  52
HETATM   52  C   UNK     0      -1.933   1.150 -19.818  0.00  0.00     0.114 C 
BRANCH  52  53
HETATM   53  C   UNK     0      -3.155   1.091 -18.993  0.00  0.00     0.139 C 
HETATM   54  O   UNK     0      -3.243   1.776 -17.962  0.00  0.00    -0.650 OA
BRANCH  53  55
HETATM   55  O   UNK     0      -4.191   0.271 -19.370  0.00  0.00    -0.776 OA
HETATM   56  H   UNK     0      -5.008   0.081 -18.840  0.00  0.00     0.167 HD
ENDBRANCH  53  55
ENDBRANCH  52  53
ENDBRANCH  51  52
ENDBRANCH  18  51
TORSDOF 16
ENDMDL
MODEL 20
REMARK VINA RESULT:      -6.9     19.595     23.511
REMARK  16 active torsions:
REMARK  status: ('A' for Active; 'I' for Inactive)
REMARK    1  A    between atoms: C_6  and  C_7 
REMARK    2  A    between atoms: C_7  and  C_8 
REMARK    3  A    between atoms: C_8  and  C_9 
REMARK    4  A    between atoms: C_9  and  O_11 
REMARK    5  A    between atoms: C_16  and  C_17 
REMARK    6  A    between atoms: C_17  and  C_18 
REMARK    7  A    between atoms: C_18  and  C_19 
REMARK    8  A    between atoms: C_19  and  O_21 
REMARK    9  A    between atoms: C_28  and  C_29 
REMARK   10  A    between atoms: C_29  and  C_30 
REMARK   11  A    between atoms: C_30  and  C_31 
REMARK   12  A    between atoms: C_31  and  O_33 
REMARK   13  A    between atoms: C_42  and  C_43 
REMARK   14  A    between atoms: C_43  and  C_44 
REMARK   15  A    between atoms: C_44  and  C_45 
REMARK   16  A    between atoms: C_45  and  O_47 
ROOT
HETATM    1  C   UNK     0       8.927  -3.532 -19.948  0.00  0.00     0.051 C 
HETATM    2  C   UNK     0       9.560  -3.839 -18.606  0.00  0.00    -0.031 A 
HETATM    3  C   UNK     0       8.967  -4.286 -17.435  0.00  0.00     0.021 A 
HETATM    4  N   UNK     0       9.915  -4.394 -16.474  0.00  0.00    -0.361 N 
HETATM    5  C   UNK     0      11.100  -4.034 -17.009  0.00  0.00     0.022 A 
HETATM    6  C   UNK     0      10.913  -3.678 -18.341  0.00  0.00    -0.027 A 
HETATM    7  C   UNK     0      12.468  -4.065 -16.402  0.00  0.00     0.115 C 
HETATM    8  C   UNK     0      12.820  -5.291 -15.578  0.00  0.00     0.021 A 
HETATM    9  N   UNK     0      12.457  -6.567 -15.781  0.00  0.00    -0.361 N 
HETATM   10  C   UNK     0      12.921  -7.305 -14.750  0.00  0.00     0.022 A 
HETATM   11  C   UNK     0      13.611  -6.483 -13.864  0.00  0.00    -0.027 A 
HETATM   12  C   UNK     0      13.552  -5.213 -14.380  0.00  0.00    -0.031 A 
HETATM   13  C   UNK     0      14.172  -3.985 -13.753  0.00  0.00     0.051 C 
HETATM   14  C   UNK     0      12.690  -8.797 -14.533  0.00  0.00     0.115 C 
HETATM   15  C   UNK     0      11.225  -9.178 -14.388  0.00  0.00     0.021 A 
HETATM   16  N   UNK     0      10.231  -8.973 -15.273  0.00  0.00    -0.361 N 
HETATM   17  C   UNK     0       9.079  -9.388 -14.743  0.00  0.00     0.022 A 
HETATM   18  C   UNK     0       9.335  -9.897 -13.454  0.00  0.00    -0.027 A 
HETATM   19  C   UNK     0      10.683  -9.761 -13.245  0.00  0.00    -0.031 A 
HETATM   20  C   UNK     0      11.392 -10.222 -11.984  0.00  0.00     0.051 C 
HETATM   21  C   UNK     0       7.673  -9.314 -15.294  0.00  0.00     0.115 C 
HETATM   22  C   UNK     0       7.322  -8.120 -16.151  0.00  0.00     0.022 A 
HETATM   23  N   UNK     0       7.673  -6.840 -15.976  0.00  0.00    -0.361 N 
HETATM   24  C   UNK     0       7.267  -6.138 -17.053  0.00  0.00     0.021 A 
HETATM   25  C   UNK     0       6.629  -6.985 -17.939  0.00  0.00    -0.031 A 
HETATM   26  C   UNK     0       5.970  -6.659 -19.263  0.00  0.00     0.051 C 
HETATM   27  C   UNK     0       6.652  -8.259 -17.384  0.00  0.00    -0.027 A 
HETATM   28  C   UNK     0       7.517  -4.670 -17.354  0.00  0.00     0.115 C 
HETATM   29  H   UNK     0       9.734  -4.686 -15.414  0.00  0.00     0.165 HD
HETATM   30  H   UNK     0      11.915  -6.959 -16.676  0.00  0.00     0.165 HD
HETATM   31  H   UNK     0      10.352  -8.570 -16.313  0.00  0.00     0.165 HD
HETATM   32  H   UNK     0       8.174  -6.411 -15.069  0.00  0.00     0.165 HD
ENDROOT
BRANCH   6  33
HETATM   33  C   UNK     0      11.910  -3.200 -19.366  0.00  0.00     0.051 C 
BRANCH  33  34
HETATM   34  C   UNK     0      13.067  -4.165 -19.479  0.00  0.00     0.114 C 
BRANCH  34  35
HETATM   35  C   UNK     0      12.504  -5.493 -19.857  0.00  0.00     0.139 C 
HETATM   36  O   UNK     0      12.648  -6.488 -19.089  0.00  0.00    -0.650 OA
BRANCH  35  37
HETATM   37  O   UNK     0      11.809  -5.702 -21.042  0.00  0.00    -0.776 OA
HETATM   38  H   UNK     0      10.924  -5.258 -21.228  0.00  0.00     0.167 HD
ENDBRANCH  35  37
ENDBRANCH  34  35
ENDBRANCH  33  34
ENDBRANCH   6  33
BRANCH  27  39
HETATM   39  C   UNK     0       5.994  -9.432 -18.020  0.00  0.00     0.051 C 
BRANCH  39  40
HETATM   40  C   UNK     0       4.624  -9.759 -17.625  0.00  0.00     0.114 C 
BRANCH  40  41
HETATM   41  C   UNK     0       4.321 -10.456 -16.396  0.00  0.00     0.139 C 
HETATM   42  O   UNK     0       4.103 -11.673 -16.336  0.00  0.00    -0.650 OA
BRANCH  41  43
HETATM   43  O   UNK     0       4.268  -9.719 -15.179  0.00  0.00    -0.776 OA
HETATM   44  H   UNK     0       3.584 -10.058 -14.513  0.00  0.00     0.167 HD
ENDBRANCH  41  43
ENDBRANCH  40  41
ENDBRANCH  39  40
ENDBRANCH  27  39
BRANCH  11  45
HETATM   45  C   UNK     0      14.307  -6.854 -12.582  0.00  0.00     0.051 C 
BRANCH  45  46
HETATM   46  C   UNK     0      15.772  -7.057 -12.725  0.00  0.00     0.114 C 
BRANCH  46  47
HETATM   47  C   UNK     0      16.232  -7.814 -11.525  0.00  0.00     0.139 C 
HETATM   48  O   UNK     0      16.669  -8.962 -11.681  0.00  0.00    -0.650 OA
BRANCH  47  49
HETATM   49  O   UNK     0      16.171  -7.253 -10.274  0.00  0.00    -0.776 OA
HETATM   50  H   UNK     0      15.594  -7.653  -9.525  0.00  0.00     0.167 HD
ENDBRANCH  47  49
ENDBRANCH  46  47
ENDBRANCH  45  46
ENDBRANCH  11  45
BRANCH  18  51
HETATM   51  C   UNK     0       8.352 -10.499 -12.484  0.00  0.00     0.051 C 
BRANCH  51  52
HETATM   52  C   UNK     0       7.801  -9.344 -11.663  0.00  0.00     0.114 C 
BRANCH  52  53
HETATM   53  C   UNK     0       6.415  -9.010 -12.044  0.00  0.00     0.139 C 
HETATM   54  O   UNK     0       5.650  -9.901 -12.447  0.00  0.00    -0.650 OA
BRANCH  53  55
HETATM   55  O   UNK     0       5.979  -7.710 -11.953  0.00  0.00    -0.776 OA
HETATM   56  H   UNK     0       5.369  -7.254 -12.588  0.00  0.00     0.167 HD
ENDBRANCH  53  55
ENDBRANCH  52  53
ENDBRANCH  51  52
ENDBRANCH  18  51
TORSDOF 16
ENDMDL
