MODEL 1
REMARK VINA RESULT:      -8.8      0.000      0.000
REMARK  28 active torsions:
REMARK  status: ('A' for Active; 'I' for Inactive)
REMARK    1  A    between atoms: C1_2  and  O2_3 
REMARK    2  A    between atoms: C1_2  and  C2_4 
REMARK    3  A    between atoms: C2_4  and  C3_5 
REMARK    4  A    between atoms: C3_5  and  C4_6 
REMARK    5  A    between atoms: C5_7  and  C6_8 
REMARK    6  A    between atoms: C6_8  and  C7_9 
REMARK    7  A    between atoms: C7_9  and  O4_11 
REMARK    8  A    between atoms: C20_28  and  C21_29 
REMARK    9  A    between atoms: C21_29  and  C22_30 
REMARK   10  A    between atoms: C22_30  and  O6_32 
REMARK   11  A    between atoms: C23_33  and  C24_34 
REMARK   12  A    between atoms: C24_34  and  C25_35 
REMARK   13  A    between atoms: C25_35  and  C26_36 
REMARK   14  A    between atoms: C26_36  and  O8_38 
REMARK   15  A    between atoms: C27_39  and  C28_40 
REMARK   16  A    between atoms: C28_40  and  C29_41 
REMARK   17  A    between atoms: C29_41  and  O10_43 
REMARK   18  A    between atoms: C30_44  and  C31_45 
REMARK   19  A    between atoms: C31_45  and  C32_46 
REMARK   20  A    between atoms: C32_46  and  C33_47 
REMARK   21  A    between atoms: C33_47  and  O12_49 
REMARK   22  A    between atoms: C34_50  and  C35_51 
REMARK   23  A    between atoms: C35_51  and  C36_52 
REMARK   24  A    between atoms: C36_52  and  O14_54 
REMARK   25  A    between atoms: C37_55  and  C38_56 
REMARK   26  A    between atoms: C38_56  and  C39_57 
REMARK   27  A    between atoms: C39_57  and  C40_58 
REMARK   28  A    between atoms: C40_58  and  O16_60 
ROOT
HETATM    1  O1  UNL     1     -34.694  15.196   2.562  1.00  0.00    -0.650 OA
HETATM    2  C1  UNL     1     -34.444  14.106   3.091  1.00  0.00     0.139 C 
ENDROOT
BRANCH   2   3
HETATM    3  O2  UNL     1     -35.194  13.003   2.676  1.00  0.00    -0.776 OA
HETATM    4  H1  UNL     1     -35.668  12.971   1.780  1.00  0.00     0.167 HD
ENDBRANCH   2   3
BRANCH   2   5
HETATM    5  C2  UNL     1     -33.404  13.929   4.123  1.00  0.00     0.115 C 
BRANCH   5   6
HETATM    6  C3  UNL     1     -32.093  14.539   3.784  1.00  0.00     0.052 C 
BRANCH   6   7
HETATM    7  C4  UNL     1     -31.674  14.159   2.408  1.00  0.00    -0.020 A 
HETATM    8  C5  UNL     1     -31.307  14.971   1.413  1.00  0.00    -0.011 A 
HETATM    9  C8  UNL     1     -30.977  14.182   0.250  1.00  0.00     0.067 A 
HETATM   10  C9  UNL     1     -30.559  14.501  -1.060  1.00  0.00     0.062 C 
HETATM   11  N4  UNL     1     -31.154  12.906   0.577  1.00  0.00    -0.248 NA
HETATM   12  C10 UNL     1     -30.417  13.587  -2.102  1.00  0.00     0.041 A 
HETATM   13  N1  UNL     1     -31.134  12.510  -2.477  1.00  0.00    -0.355 N 
HETATM   14  C37 UNL     1     -29.294  13.723  -2.951  1.00  0.00    -0.022 A 
HETATM   15  C11 UNL     1     -30.503  11.955  -3.529  1.00  0.00     0.042 A 
HETATM   16  H10 UNL     1     -32.092  12.163  -2.023  1.00  0.00     0.166 HD
HETATM   17  C12 UNL     1     -30.749  10.815  -4.296  1.00  0.00     0.062 C 
HETATM   18  C34 UNL     1     -29.349  12.710  -3.834  1.00  0.00    -0.013 A 
HETATM   19  C13 UNL     1     -31.162   9.570  -3.786  1.00  0.00     0.066 A 
HETATM   20  N2  UNL     1     -31.330   9.440  -2.462  1.00  0.00    -0.248 NA
HETATM   21  C30 UNL     1     -31.484   8.302  -4.392  1.00  0.00    -0.020 A 
HETATM   22  C14 UNL     1     -31.735   8.188  -2.181  1.00  0.00     0.067 A 
HETATM   23  C15 UNL     1     -31.978   7.840  -0.846  1.00  0.00     0.062 C 
HETATM   24  C27 UNL     1     -31.837   7.438  -3.427  1.00  0.00    -0.011 A 
HETATM   25  C16 UNL     1     -32.147   8.717   0.248  1.00  0.00     0.041 A 
HETATM   26  N3  UNL     1     -31.519   9.861   0.543  1.00  0.00    -0.355 N 
HETATM   27  C23 UNL     1     -33.153   8.437   1.205  1.00  0.00    -0.022 A 
HETATM   28  C17 UNL     1     -32.074  10.355   1.656  1.00  0.00     0.042 A 
HETATM   29  H13 UNL     1     -30.661  10.316  -0.021  1.00  0.00     0.166 HD
HETATM   30  C18 UNL     1     -31.804  11.531   2.382  1.00  0.00     0.062 C 
HETATM   31  C20 UNL     1     -33.099   9.489   2.093  1.00  0.00    -0.013 A 
HETATM   32  C19 UNL     1     -31.573  12.811   1.863  1.00  0.00     0.066 A 
BRANCH   8  33
HETATM   33  C6  UNL     1     -31.253  16.455   1.525  1.00  0.00     0.151 C 
BRANCH  33  34
HETATM   34  C7  UNL     1     -32.196  17.141   0.612  1.00  0.00     0.143 C 
HETATM   35  O3  UNL     1     -31.751  17.913  -0.259  1.00  0.00    -0.650 OA
BRANCH  34  36
HETATM   36  O4  UNL     1     -33.544  16.900   0.763  1.00  0.00    -0.776 OA
HETATM   37  H8  UNL     1     -34.130  16.871  -0.071  1.00  0.00     0.167 HD
ENDBRANCH  34  36
ENDBRANCH  33  34
ENDBRANCH   8  33
BRANCH  31  38
HETATM   38  C21 UNL     1     -34.009   9.668   3.292  1.00  0.00     0.151 C 
BRANCH  38  39
HETATM   39  C22 UNL     1     -35.401   9.563   2.797  1.00  0.00     0.143 C 
HETATM   40  O5  UNL     1     -36.199   8.796   3.378  1.00  0.00    -0.650 OA
BRANCH  39  41
HETATM   41  O6  UNL     1     -35.873  10.281   1.709  1.00  0.00    -0.776 OA
HETATM   42  H17 UNL     1     -35.391  11.124   1.374  1.00  0.00     0.167 HD
ENDBRANCH  39  41
ENDBRANCH  38  39
ENDBRANCH  31  38
BRANCH  27  43
HETATM   43  C24 UNL     1     -34.095   7.290   1.296  1.00  0.00     0.052 C 
BRANCH  43  44
HETATM   44  C25 UNL     1     -33.478   6.110   1.919  1.00  0.00     0.115 C 
BRANCH  44  45
HETATM   45  C26 UNL     1     -32.567   6.286   3.046  1.00  0.00     0.139 C 
HETATM   46  O7  UNL     1     -32.791   6.483   4.235  1.00  0.00    -0.650 OA
BRANCH  45  47
HETATM   47  O8  UNL     1     -31.188   6.220   2.699  1.00  0.00    -0.776 OA
HETATM   48  H22 UNL     1     -30.706   5.365   2.572  1.00  0.00     0.167 HD
ENDBRANCH  45  47
ENDBRANCH  44  45
ENDBRANCH  43  44
ENDBRANCH  27  43
BRANCH  24  49
HETATM   49  C28 UNL     1     -32.258   6.009  -3.579  1.00  0.00     0.151 C 
BRANCH  49  50
HETATM   50  C29 UNL     1     -31.082   5.105  -3.557  1.00  0.00     0.143 C 
HETATM   51  O9  UNL     1     -30.750   4.579  -2.470  1.00  0.00    -0.650 OA
BRANCH  50  52
HETATM   52  O10 UNL     1     -30.330   4.813  -4.680  1.00  0.00    -0.776 OA
HETATM   53  H25 UNL     1     -29.314   4.657  -4.626  1.00  0.00     0.167 HD
ENDBRANCH  50  52
ENDBRANCH  49  50
ENDBRANCH  24  49
BRANCH  21  54
HETATM   54  C31 UNL     1     -31.460   7.973  -5.846  1.00  0.00     0.052 C 
BRANCH  54  55
HETATM   55  C32 UNL     1     -30.588   8.854  -6.666  1.00  0.00     0.115 C 
BRANCH  55  56
HETATM   56  C33 UNL     1     -29.939   7.961  -7.696  1.00  0.00     0.139 C 
HETATM   57  O11 UNL     1     -30.623   7.165  -8.385  1.00  0.00    -0.650 OA
BRANCH  56  58
HETATM   58  O12 UNL     1     -28.569   7.983  -7.922  1.00  0.00    -0.776 OA
HETATM   59  H30 UNL     1     -28.135   8.910  -7.904  1.00  0.00     0.167 HD
ENDBRANCH  56  58
ENDBRANCH  55  56
ENDBRANCH  54  55
ENDBRANCH  21  54
BRANCH  18  60
HETATM   60  C35 UNL     1     -28.334  12.517  -4.922  1.00  0.00     0.151 C 
BRANCH  60  61
HETATM   61  C36 UNL     1     -27.233  11.728  -4.364  1.00  0.00     0.143 C 
HETATM   62  O13 UNL     1     -26.043  12.129  -4.501  1.00  0.00    -0.650 OA
BRANCH  61  63
HETATM   63  O14 UNL     1     -27.434  10.538  -3.676  1.00  0.00    -0.776 OA
HETATM   64  H33 UNL     1     -26.648   9.926  -3.536  1.00  0.00     0.167 HD
ENDBRANCH  61  63
ENDBRANCH  60  61
ENDBRANCH  18  60
BRANCH  14  65
HETATM   65  C38 UNL     1     -28.217  14.768  -2.956  1.00  0.00     0.052 C 
BRANCH  65  66
HETATM   66  C39 UNL     1     -28.666  15.943  -3.775  1.00  0.00     0.115 C 
BRANCH  66  67
HETATM   67  C40 UNL     1     -28.531  17.188  -2.930  1.00  0.00     0.139 C 
HETATM   68  O15 UNL     1     -27.413  17.753  -2.803  1.00  0.00    -0.650 OA
BRANCH  67  69
HETATM   69  O16 UNL     1     -29.618  17.717  -2.292  1.00  0.00    -0.776 OA
HETATM   70  H38 UNL     1     -29.651  17.811  -1.291  1.00  0.00     0.167 HD
ENDBRANCH  67  69
ENDBRANCH  66  67
ENDBRANCH  65  66
ENDBRANCH  14  65
ENDBRANCH   6   7
ENDBRANCH   5   6
ENDBRANCH   2   5
TORSDOF 28
ENDMDL
MODEL 2
REMARK VINA RESULT:      -8.5      1.755     10.616
REMARK  28 active torsions:
REMARK  status: ('A' for Active; 'I' for Inactive)
REMARK    1  A    between atoms: C1_2  and  O2_3 
REMARK    2  A    between atoms: C1_2  and  C2_4 
REMARK    3  A    between atoms: C2_4  and  C3_5 
REMARK    4  A    between atoms: C3_5  and  C4_6 
REMARK    5  A    between atoms: C5_7  and  C6_8 
REMARK    6  A    between atoms: C6_8  and  C7_9 
REMARK    7  A    between atoms: C7_9  and  O4_11 
REMARK    8  A    between atoms: C20_28  and  C21_29 
REMARK    9  A    between atoms: C21_29  and  C22_30 
REMARK   10  A    between atoms: C22_30  and  O6_32 
REMARK   11  A    between atoms: C23_33  and  C24_34 
REMARK   12  A    between atoms: C24_34  and  C25_35 
REMARK   13  A    between atoms: C25_35  and  C26_36 
REMARK   14  A    between atoms: C26_36  and  O8_38 
REMARK   15  A    between atoms: C27_39  and  C28_40 
REMARK   16  A    between atoms: C28_40  and  C29_41 
REMARK   17  A    between atoms: C29_41  and  O10_43 
REMARK   18  A    between atoms: C30_44  and  C31_45 
REMARK   19  A    between atoms: C31_45  and  C32_46 
REMARK   20  A    between atoms: C32_46  and  C33_47 
REMARK   21  A    between atoms: C33_47  and  O12_49 
REMARK   22  A    between atoms: C34_50  and  C35_51 
REMARK   23  A    between atoms: C35_51  and  C36_52 
REMARK   24  A    between atoms: C36_52  and  O14_54 
REMARK   25  A    between atoms: C37_55  and  C38_56 
REMARK   26  A    between atoms: C38_56  and  C39_57 
REMARK   27  A    between atoms: C39_57  and  C40_58 
REMARK   28  A    between atoms: C40_58  and  O16_60 
ROOT
HETATM    1  O1  UNL     1     -29.990   3.336  -5.792  1.00  0.00    -0.650 OA
HETATM    2  C1  UNL     1     -29.251   4.298  -5.552  1.00  0.00     0.139 C 
ENDROOT
BRANCH   2   3
HETATM    3  O2  UNL     1     -28.075   4.408  -6.298  1.00  0.00    -0.776 OA
HETATM    4  H1  UNL     1     -27.200   3.991  -6.001  1.00  0.00     0.167 HD
ENDBRANCH   2   3
BRANCH   2   5
HETATM    5  C2  UNL     1     -29.560   5.317  -4.529  1.00  0.00     0.115 C 
BRANCH   5   6
HETATM    6  C3  UNL     1     -30.702   6.203  -4.870  1.00  0.00     0.052 C 
BRANCH   6   7
HETATM    7  C4  UNL     1     -31.226   6.881  -3.654  1.00  0.00    -0.020 A 
HETATM    8  C5  UNL     1     -32.160   6.436  -2.809  1.00  0.00    -0.011 A 
HETATM    9  C8  UNL     1     -32.363   7.411  -1.764  1.00  0.00     0.067 A 
HETATM   10  C9  UNL     1     -33.220   7.479  -0.645  1.00  0.00     0.062 C 
HETATM   11  N4  UNL     1     -31.539   8.426  -2.008  1.00  0.00    -0.248 NA
HETATM   12  C10 UNL     1     -33.366   8.587   0.188  1.00  0.00     0.041 A 
HETATM   13  N1  UNL     1     -33.395   9.912  -0.050  1.00  0.00    -0.355 N 
HETATM   14  C37 UNL     1     -33.461   8.358   1.580  1.00  0.00    -0.022 A 
HETATM   15  C11 UNL     1     -33.499  10.531   1.140  1.00  0.00     0.042 A 
HETATM   16  H10 UNL     1     -33.372  10.404  -1.052  1.00  0.00     0.166 HD
HETATM   17  C12 UNL     1     -33.528  11.875   1.517  1.00  0.00     0.062 C 
HETATM   18  C34 UNL     1     -33.543   9.564   2.169  1.00  0.00    -0.013 A 
HETATM   19  C13 UNL     1     -32.713  12.886   0.974  1.00  0.00     0.066 A 
HETATM   20  N2  UNL     1     -31.825  12.557   0.025  1.00  0.00    -0.248 NA
HETATM   21  C30 UNL     1     -32.601  14.305   1.201  1.00  0.00    -0.020 A 
HETATM   22  C14 UNL     1     -31.159  13.657  -0.369  1.00  0.00     0.067 A 
HETATM   23  C15 UNL     1     -30.182  13.536  -1.366  1.00  0.00     0.062 C 
HETATM   24  C27 UNL     1     -31.653  14.801   0.389  1.00  0.00    -0.011 A 
HETATM   25  C16 UNL     1     -29.994  12.450  -2.249  1.00  0.00     0.041 A 
HETATM   26  N3  UNL     1     -30.100  11.133  -2.035  1.00  0.00    -0.355 N 
HETATM   27  C23 UNL     1     -29.689  12.713  -3.608  1.00  0.00    -0.022 A 
HETATM   28  C17 UNL     1     -29.883  10.513  -3.200  1.00  0.00     0.042 A 
HETATM   29  H13 UNL     1     -30.304  10.632  -1.051  1.00  0.00     0.166 HD
HETATM   30  C18 UNL     1     -29.890   9.145  -3.536  1.00  0.00     0.062 C 
HETATM   31  C20 UNL     1     -29.626  11.472  -4.202  1.00  0.00    -0.013 A 
HETATM   32  C19 UNL     1     -30.820   8.179  -3.130  1.00  0.00     0.066 A 
BRANCH   8  33
HETATM   33  C6  UNL     1     -32.858   5.128  -2.952  1.00  0.00     0.151 C 
BRANCH  33  34
HETATM   34  C7  UNL     1     -32.037   3.980  -2.503  1.00  0.00     0.143 C 
HETATM   35  O3  UNL     1     -31.515   4.007  -1.372  1.00  0.00    -0.650 OA
BRANCH  34  36
HETATM   36  O4  UNL     1     -31.880   2.914  -3.362  1.00  0.00    -0.776 OA
HETATM   37  H8  UNL     1     -32.127   1.981  -3.031  1.00  0.00     0.167 HD
ENDBRANCH  34  36
ENDBRANCH  33  34
ENDBRANCH   8  33
BRANCH  31  38
HETATM   38  C21 UNL     1     -29.357  11.221  -5.673  1.00  0.00     0.151 C 
BRANCH  38  39
HETATM   39  C22 UNL     1     -30.476  10.394  -6.181  1.00  0.00     0.143 C 
HETATM   40  O5  UNL     1     -30.222   9.381  -6.870  1.00  0.00    -0.650 OA
BRANCH  39  41
HETATM   41  O6  UNL     1     -31.807  10.685  -5.930  1.00  0.00    -0.776 OA
HETATM   42  H17 UNL     1     -32.406  10.039  -5.399  1.00  0.00     0.167 HD
ENDBRANCH  39  41
ENDBRANCH  38  39
ENDBRANCH  31  38
BRANCH  27  43
HETATM   43  C24 UNL     1     -29.475  14.009  -4.307  1.00  0.00     0.052 C 
BRANCH  43  44
HETATM   44  C25 UNL     1     -28.059  14.401  -4.329  1.00  0.00     0.115 C 
BRANCH  44  45
HETATM   45  C26 UNL     1     -27.664  15.697  -3.785  1.00  0.00     0.139 C 
HETATM   46  O7  UNL     1     -26.689  16.024  -3.117  1.00  0.00    -0.650 OA
BRANCH  45  47
HETATM   47  O8  UNL     1     -28.567  16.756  -4.082  1.00  0.00    -0.776 OA
HETATM   48  H22 UNL     1     -28.377  17.451  -4.762  1.00  0.00     0.167 HD
ENDBRANCH  45  47
ENDBRANCH  44  45
ENDBRANCH  43  44
ENDBRANCH  27  43
BRANCH  24  49
HETATM   49  C28 UNL     1     -31.194  16.220   0.268  1.00  0.00     0.151 C 
BRANCH  49  50
HETATM   50  C29 UNL     1     -31.444  16.743  -1.098  1.00  0.00     0.143 C 
HETATM   51  O9  UNL     1     -30.464  16.950  -1.849  1.00  0.00    -0.650 OA
BRANCH  50  52
HETATM   52  O10 UNL     1     -32.710  17.015  -1.584  1.00  0.00    -0.776 OA
HETATM   53  H25 UNL     1     -33.550  16.586  -1.175  1.00  0.00     0.167 HD
ENDBRANCH  50  52
ENDBRANCH  49  50
ENDBRANCH  24  49
BRANCH  21  54
HETATM   54  C31 UNL     1     -33.402  15.126   2.154  1.00  0.00     0.052 C 
BRANCH  54  55
HETATM   55  C32 UNL     1     -34.853  15.200   1.839  1.00  0.00     0.115 C 
BRANCH  55  56
HETATM   56  C33 UNL     1     -35.025  16.393   0.931  1.00  0.00     0.139 C 
HETATM   57  O11 UNL     1     -36.022  16.489   0.172  1.00  0.00    -0.650 OA
BRANCH  56  58
HETATM   58  O12 UNL     1     -34.097  17.426   0.896  1.00  0.00    -0.776 OA
HETATM   59  H30 UNL     1     -33.249  17.272   1.448  1.00  0.00     0.167 HD
ENDBRANCH  56  58
ENDBRANCH  55  56
ENDBRANCH  54  55
ENDBRANCH  21  54
BRANCH  18  60
HETATM   60  C35 UNL     1     -33.676   9.744   3.652  1.00  0.00     0.151 C 
BRANCH  60  61
HETATM   61  C36 UNL     1     -35.087  10.015   3.939  1.00  0.00     0.143 C 
HETATM   62  O13 UNL     1     -35.433  11.156   4.356  1.00  0.00    -0.650 OA
BRANCH  61  63
HETATM   63  O14 UNL     1     -36.084   9.063   3.772  1.00  0.00    -0.776 OA
HETATM   64  H33 UNL     1     -35.855   8.206   3.296  1.00  0.00     0.167 HD
ENDBRANCH  61  63
ENDBRANCH  60  61
ENDBRANCH  18  60
BRANCH  14  65
HETATM   65  C38 UNL     1     -33.496   7.063   2.338  1.00  0.00     0.052 C 
BRANCH  65  66
HETATM   66  C39 UNL     1     -32.116   6.736   2.831  1.00  0.00     0.115 C 
BRANCH  66  67
HETATM   67  C40 UNL     1     -32.247   5.967   4.125  1.00  0.00     0.139 C 
HETATM   68  O15 UNL     1     -31.825   4.784   4.207  1.00  0.00    -0.650 OA
BRANCH  67  69
HETATM   69  O16 UNL     1     -32.825   6.544   5.222  1.00  0.00    -0.776 OA
HETATM   70  H38 UNL     1     -32.808   6.099   6.124  1.00  0.00     0.167 HD
ENDBRANCH  67  69
ENDBRANCH  66  67
ENDBRANCH  65  66
ENDBRANCH  14  65
ENDBRANCH   6   7
ENDBRANCH   5   6
ENDBRANCH   2   5
TORSDOF 28
ENDMDL
MODEL 3
REMARK VINA RESULT:      -8.3      1.393      7.432
REMARK  28 active torsions:
REMARK  status: ('A' for Active; 'I' for Inactive)
REMARK    1  A    between atoms: C1_2  and  O2_3 
REMARK    2  A    between atoms: C1_2  and  C2_4 
REMARK    3  A    between atoms: C2_4  and  C3_5 
REMARK    4  A    between atoms: C3_5  and  C4_6 
REMARK    5  A    between atoms: C5_7  and  C6_8 
REMARK    6  A    between atoms: C6_8  and  C7_9 
REMARK    7  A    between atoms: C7_9  and  O4_11 
REMARK    8  A    between atoms: C20_28  and  C21_29 
REMARK    9  A    between atoms: C21_29  and  C22_30 
REMARK   10  A    between atoms: C22_30  and  O6_32 
REMARK   11  A    between atoms: C23_33  and  C24_34 
REMARK   12  A    between atoms: C24_34  and  C25_35 
REMARK   13  A    between atoms: C25_35  and  C26_36 
REMARK   14  A    between atoms: C26_36  and  O8_38 
REMARK   15  A    between atoms: C27_39  and  C28_40 
REMARK   16  A    between atoms: C28_40  and  C29_41 
REMARK   17  A    between atoms: C29_41  and  O10_43 
REMARK   18  A    between atoms: C30_44  and  C31_45 
REMARK   19  A    between atoms: C31_45  and  C32_46 
REMARK   20  A    between atoms: C32_46  and  C33_47 
REMARK   21  A    between atoms: C33_47  and  O12_49 
REMARK   22  A    between atoms: C34_50  and  C35_51 
REMARK   23  A    between atoms: C35_51  and  C36_52 
REMARK   24  A    between atoms: C36_52  and  O14_54 
REMARK   25  A    between atoms: C37_55  and  C38_56 
REMARK   26  A    between atoms: C38_56  and  C39_57 
REMARK   27  A    between atoms: C39_57  and  C40_58 
REMARK   28  A    between atoms: C40_58  and  O16_60 
ROOT
HETATM    1  O1  UNL     1     -27.237  11.877  -4.573  1.00  0.00    -0.650 OA
HETATM    2  C1  UNL     1     -27.130  13.074  -4.281  1.00  0.00     0.139 C 
ENDROOT
BRANCH   2   3
HETATM    3  O2  UNL     1     -26.452  13.389  -3.102  1.00  0.00    -0.776 OA
HETATM    4  H1  UNL     1     -26.515  12.818  -2.266  1.00  0.00     0.167 HD
ENDBRANCH   2   3
BRANCH   2   5
HETATM    5  C2  UNL     1     -27.678  14.161  -5.116  1.00  0.00     0.115 C 
BRANCH   5   6
HETATM    6  C3  UNL     1     -29.162  14.218  -5.152  1.00  0.00     0.052 C 
BRANCH   6   7
HETATM    7  C4  UNL     1     -29.735  13.925  -3.811  1.00  0.00    -0.020 A 
HETATM    8  C5  UNL     1     -29.689  14.690  -2.718  1.00  0.00    -0.011 A 
HETATM    9  C8  UNL     1     -30.375  14.023  -1.638  1.00  0.00     0.067 A 
HETATM   10  C9  UNL     1     -30.613  14.346  -0.284  1.00  0.00     0.062 C 
HETATM   11  N4  UNL     1     -30.821  12.864  -2.111  1.00  0.00    -0.248 NA
HETATM   12  C10 UNL     1     -31.191  13.494   0.655  1.00  0.00     0.041 A 
HETATM   13  N1  UNL     1     -31.080  12.171   0.878  1.00  0.00    -0.355 N 
HETATM   14  C37 UNL     1     -32.129  14.046   1.557  1.00  0.00    -0.022 A 
HETATM   15  C11 UNL     1     -31.918  11.863   1.886  1.00  0.00     0.042 A 
HETATM   16  H10 UNL     1     -30.395  11.466   0.349  1.00  0.00     0.166 HD
HETATM   17  C12 UNL     1     -32.257  10.662   2.512  1.00  0.00     0.062 C 
HETATM   18  C34 UNL     1     -32.578  13.033   2.320  1.00  0.00    -0.013 A 
HETATM   19  C13 UNL     1     -32.477   9.439   1.850  1.00  0.00     0.066 A 
HETATM   20  N2  UNL     1     -32.368   9.401   0.514  1.00  0.00    -0.248 NA
HETATM   21  C30 UNL     1     -32.808   8.109   2.298  1.00  0.00    -0.020 A 
HETATM   22  C14 UNL     1     -32.603   8.149   0.080  1.00  0.00     0.067 A 
HETATM   23  C15 UNL     1     -32.531   7.886  -1.295  1.00  0.00     0.062 C 
HETATM   24  C27 UNL     1     -32.892   7.300   1.229  1.00  0.00    -0.011 A 
HETATM   25  C16 UNL     1     -31.946   8.699  -2.290  1.00  0.00     0.041 A 
HETATM   26  N3  UNL     1     -31.949  10.030  -2.431  1.00  0.00    -0.355 N 
HETATM   27  C23 UNL     1     -31.178   8.090  -3.313  1.00  0.00    -0.022 A 
HETATM   28  C17 UNL     1     -31.206  10.327  -3.504  1.00  0.00     0.042 A 
HETATM   29  H13 UNL     1     -32.497  10.768  -1.786  1.00  0.00     0.166 HD
HETATM   30  C18 UNL     1     -30.871  11.567  -4.083  1.00  0.00     0.062 C 
HETATM   31  C20 UNL     1     -30.710   9.137  -4.075  1.00  0.00    -0.013 A 
HETATM   32  C19 UNL     1     -30.475  12.732  -3.415  1.00  0.00     0.066 A 
BRANCH   8  33
HETATM   33  C6  UNL     1     -29.029  16.024  -2.662  1.00  0.00     0.151 C 
BRANCH  33  34
HETATM   34  C7  UNL     1     -29.913  17.089  -2.135  1.00  0.00     0.143 C 
HETATM   35  O3  UNL     1     -29.406  18.131  -1.675  1.00  0.00    -0.650 OA
BRANCH  34  36
HETATM   36  O4  UNL     1     -31.275  16.887  -2.173  1.00  0.00    -0.776 OA
HETATM   37  H8  UNL     1     -31.831  17.433  -2.830  1.00  0.00     0.167 HD
ENDBRANCH  34  36
ENDBRANCH  33  34
ENDBRANCH   8  33
BRANCH  31  38
HETATM   38  C21 UNL     1     -29.803   9.002  -5.283  1.00  0.00     0.151 C 
BRANCH  38  39
HETATM   39  C22 UNL     1     -30.678   8.962  -6.478  1.00  0.00     0.143 C 
HETATM   40  O5  UNL     1     -30.166   8.771  -7.602  1.00  0.00    -0.650 OA
BRANCH  39  41
HETATM   41  O6  UNL     1     -32.053   9.127  -6.414  1.00  0.00    -0.776 OA
HETATM   42  H17 UNL     1     -32.695   8.404  -6.763  1.00  0.00     0.167 HD
ENDBRANCH  39  41
ENDBRANCH  38  39
ENDBRANCH  31  38
BRANCH  27  43
HETATM   43  C24 UNL     1     -30.894   6.652  -3.568  1.00  0.00     0.052 C 
BRANCH  43  44
HETATM   44  C25 UNL     1     -32.012   5.784  -3.172  1.00  0.00     0.115 C 
BRANCH  44  45
HETATM   45  C26 UNL     1     -31.740   4.424  -2.716  1.00  0.00     0.139 C 
HETATM   46  O7  UNL     1     -31.577   3.973  -1.588  1.00  0.00    -0.650 OA
BRANCH  45  47
HETATM   47  O8  UNL     1     -31.649   3.464  -3.763  1.00  0.00    -0.776 OA
HETATM   48  H22 UNL     1     -31.840   3.681  -4.710  1.00  0.00     0.167 HD
ENDBRANCH  45  47
ENDBRANCH  44  45
ENDBRANCH  43  44
ENDBRANCH  27  43
BRANCH  24  49
HETATM   49  C28 UNL     1     -33.204   5.836   1.204  1.00  0.00     0.151 C 
BRANCH  49  50
HETATM   50  C29 UNL     1     -34.557   5.574   1.753  1.00  0.00     0.143 C 
HETATM   51  O9  UNL     1     -35.430   6.466   1.649  1.00  0.00    -0.650 OA
BRANCH  50  52
HETATM   52  O10 UNL     1     -34.905   4.389   2.377  1.00  0.00    -0.776 OA
HETATM   53  H25 UNL     1     -34.279   3.928   3.050  1.00  0.00     0.167 HD
ENDBRANCH  50  52
ENDBRANCH  49  50
ENDBRANCH  24  49
BRANCH  21  54
HETATM   54  C31 UNL     1     -33.011   7.663   3.706  1.00  0.00     0.052 C 
BRANCH  54  55
HETATM   55  C32 UNL     1     -31.835   6.989   4.317  1.00  0.00     0.115 C 
BRANCH  55  56
HETATM   56  C33 UNL     1     -32.169   5.518   4.361  1.00  0.00     0.139 C 
HETATM   57  O11 UNL     1     -31.320   4.652   4.035  1.00  0.00    -0.650 OA
BRANCH  56  58
HETATM   58  O12 UNL     1     -33.419   5.065   4.761  1.00  0.00    -0.776 OA
HETATM   59  H30 UNL     1     -34.207   5.667   4.506  1.00  0.00     0.167 HD
ENDBRANCH  56  58
ENDBRANCH  55  56
ENDBRANCH  54  55
ENDBRANCH  21  54
BRANCH  18  60
HETATM   60  C35 UNL     1     -33.582  13.219   3.419  1.00  0.00     0.151 C 
BRANCH  60  61
HETATM   61  C36 UNL     1     -34.910  12.975   2.852  1.00  0.00     0.143 C 
HETATM   62  O13 UNL     1     -35.267  11.794   2.580  1.00  0.00    -0.650 OA
BRANCH  61  63
HETATM   63  O14 UNL     1     -35.816  13.995   2.593  1.00  0.00    -0.776 OA
HETATM   64  H33 UNL     1     -36.611  14.097   3.202  1.00  0.00     0.167 HD
ENDBRANCH  61  63
ENDBRANCH  60  61
ENDBRANCH  18  60
BRANCH  14  65
HETATM   65  C38 UNL     1     -32.579  15.469   1.722  1.00  0.00     0.052 C 
BRANCH  65  66
HETATM   66  C39 UNL     1     -31.390  16.337   2.017  1.00  0.00     0.115 C 
BRANCH  66  67
HETATM   67  C40 UNL     1     -31.565  17.643   1.279  1.00  0.00     0.139 C 
HETATM   68  O15 UNL     1     -30.922  18.665   1.634  1.00  0.00    -0.650 OA
BRANCH  67  69
HETATM   69  O16 UNL     1     -32.423  17.733   0.218  1.00  0.00    -0.776 OA
HETATM   70  H38 UNL     1     -32.119  17.557  -0.725  1.00  0.00     0.167 HD
ENDBRANCH  67  69
ENDBRANCH  66  67
ENDBRANCH  65  66
ENDBRANCH  14  65
ENDBRANCH   6   7
ENDBRANCH   5   6
ENDBRANCH   2   5
TORSDOF 28
ENDMDL
MODEL 4
REMARK VINA RESULT:      -8.1      1.732      7.778
REMARK  28 active torsions:
REMARK  status: ('A' for Active; 'I' for Inactive)
REMARK    1  A    between atoms: C1_2  and  O2_3 
REMARK    2  A    between atoms: C1_2  and  C2_4 
REMARK    3  A    between atoms: C2_4  and  C3_5 
REMARK    4  A    between atoms: C3_5  and  C4_6 
REMARK    5  A    between atoms: C5_7  and  C6_8 
REMARK    6  A    between atoms: C6_8  and  C7_9 
REMARK    7  A    between atoms: C7_9  and  O4_11 
REMARK    8  A    between atoms: C20_28  and  C21_29 
REMARK    9  A    between atoms: C21_29  and  C22_30 
REMARK   10  A    between atoms: C22_30  and  O6_32 
REMARK   11  A    between atoms: C23_33  and  C24_34 
REMARK   12  A    between atoms: C24_34  and  C25_35 
REMARK   13  A    between atoms: C25_35  and  C26_36 
REMARK   14  A    between atoms: C26_36  and  O8_38 
REMARK   15  A    between atoms: C27_39  and  C28_40 
REMARK   16  A    between atoms: C28_40  and  C29_41 
REMARK   17  A    between atoms: C29_41  and  O10_43 
REMARK   18  A    between atoms: C30_44  and  C31_45 
REMARK   19  A    between atoms: C31_45  and  C32_46 
REMARK   20  A    between atoms: C32_46  and  C33_47 
REMARK   21  A    between atoms: C33_47  and  O12_49 
REMARK   22  A    between atoms: C34_50  and  C35_51 
REMARK   23  A    between atoms: C35_51  and  C36_52 
REMARK   24  A    between atoms: C36_52  and  O14_54 
REMARK   25  A    between atoms: C37_55  and  C38_56 
REMARK   26  A    between atoms: C38_56  and  C39_57 
REMARK   27  A    between atoms: C39_57  and  C40_58 
REMARK   28  A    between atoms: C40_58  and  O16_60 
ROOT
HETATM    1  O1  UNL     1     -26.741  16.363  -6.769  1.00  0.00    -0.650 OA
HETATM    2  C1  UNL     1     -26.516  15.192  -6.441  1.00  0.00     0.139 C 
ENDROOT
BRANCH   2   3
HETATM    3  O2  UNL     1     -25.201  14.734  -6.554  1.00  0.00    -0.776 OA
HETATM    4  H1  UNL     1     -24.927  13.793  -6.295  1.00  0.00     0.167 HD
ENDBRANCH   2   3
BRANCH   2   5
HETATM    5  C2  UNL     1     -27.563  14.277  -5.944  1.00  0.00     0.115 C 
BRANCH   5   6
HETATM    6  C3  UNL     1     -28.901  14.902  -5.788  1.00  0.00     0.052 C 
BRANCH   6   7
HETATM    7  C4  UNL     1     -29.455  14.633  -4.434  1.00  0.00    -0.020 A 
HETATM    8  C5  UNL     1     -29.396  15.419  -3.356  1.00  0.00    -0.011 A 
HETATM    9  C8  UNL     1     -30.066  14.770  -2.254  1.00  0.00     0.067 A 
HETATM   10  C9  UNL     1     -30.287  15.118  -0.904  1.00  0.00     0.062 C 
HETATM   11  N4  UNL     1     -30.516  13.601  -2.701  1.00  0.00    -0.248 NA
HETATM   12  C10 UNL     1     -30.851  14.282   0.058  1.00  0.00     0.041 A 
HETATM   13  N1  UNL     1     -30.734  12.963   0.305  1.00  0.00    -0.355 N 
HETATM   14  C37 UNL     1     -31.777  14.848   0.963  1.00  0.00    -0.022 A 
HETATM   15  C11 UNL     1     -31.557  12.672   1.329  1.00  0.00     0.042 A 
HETATM   16  H10 UNL     1     -30.054  12.250  -0.221  1.00  0.00     0.166 HD
HETATM   17  C12 UNL     1     -31.885  11.482   1.981  1.00  0.00     0.062 C 
HETATM   18  C34 UNL     1     -32.215  13.849   1.750  1.00  0.00    -0.013 A 
HETATM   19  C13 UNL     1     -32.112  10.247   1.345  1.00  0.00     0.066 A 
HETATM   20  N2  UNL     1     -32.021  10.184   0.009  1.00  0.00    -0.248 NA
HETATM   21  C30 UNL     1     -32.435   8.925   1.821  1.00  0.00    -0.020 A 
HETATM   22  C14 UNL     1     -32.259   8.925  -0.400  1.00  0.00     0.067 A 
HETATM   23  C15 UNL     1     -32.206   8.637  -1.770  1.00  0.00     0.062 C 
HETATM   24  C27 UNL     1     -32.531   8.096   0.769  1.00  0.00    -0.011 A 
HETATM   25  C16 UNL     1     -31.636   9.432  -2.788  1.00  0.00     0.041 A 
HETATM   26  N3  UNL     1     -31.642  10.760  -2.953  1.00  0.00    -0.355 N 
HETATM   27  C23 UNL     1     -30.880   8.805  -3.809  1.00  0.00    -0.022 A 
HETATM   28  C17 UNL     1     -30.915  11.039  -4.041  1.00  0.00     0.042 A 
HETATM   29  H13 UNL     1     -32.183  11.509  -2.314  1.00  0.00     0.166 HD
HETATM   30  C18 UNL     1     -30.591  12.268  -4.647  1.00  0.00     0.062 C 
HETATM   31  C20 UNL     1     -30.424   9.840  -4.597  1.00  0.00    -0.013 A 
HETATM   32  C19 UNL     1     -30.188  13.447  -4.007  1.00  0.00     0.066 A 
BRANCH   8  33
HETATM   33  C6  UNL     1     -28.738  16.754  -3.333  1.00  0.00     0.151 C 
BRANCH  33  34
HETATM   34  C7  UNL     1     -27.259  16.673  -3.331  1.00  0.00     0.143 C 
HETATM   35  O3  UNL     1     -26.701  15.701  -2.786  1.00  0.00    -0.650 OA
BRANCH  34  36
HETATM   36  O4  UNL     1     -26.548  17.685  -3.936  1.00  0.00    -0.776 OA
HETATM   37  H8  UNL     1     -26.973  18.610  -4.000  1.00  0.00     0.167 HD
ENDBRANCH  34  36
ENDBRANCH  33  34
ENDBRANCH   8  33
BRANCH  31  38
HETATM   38  C21 UNL     1     -29.533   9.684  -5.814  1.00  0.00     0.151 C 
BRANCH  38  39
HETATM   39  C22 UNL     1     -30.384   9.158  -6.907  1.00  0.00     0.143 C 
HETATM   40  O5  UNL     1     -29.842   8.606  -7.890  1.00  0.00    -0.650 OA
BRANCH  39  41
HETATM   41  O6  UNL     1     -31.767   9.246  -6.899  1.00  0.00    -0.776 OA
HETATM   42  H17 UNL     1     -32.285   9.455  -6.035  1.00  0.00     0.167 HD
ENDBRANCH  39  41
ENDBRANCH  38  39
ENDBRANCH  31  38
BRANCH  27  43
HETATM   43  C24 UNL     1     -30.596   7.364  -4.042  1.00  0.00     0.052 C 
BRANCH  43  44
HETATM   44  C25 UNL     1     -31.747   6.510  -3.715  1.00  0.00     0.115 C 
BRANCH  44  45
HETATM   45  C26 UNL     1     -31.528   5.237  -3.035  1.00  0.00     0.139 C 
HETATM   46  O7  UNL     1     -32.321   4.448  -2.534  1.00  0.00    -0.650 OA
BRANCH  45  47
HETATM   47  O8  UNL     1     -30.161   4.853  -2.938  1.00  0.00    -0.776 OA
HETATM   48  H22 UNL     1     -29.440   5.296  -3.454  1.00  0.00     0.167 HD
ENDBRANCH  45  47
ENDBRANCH  44  45
ENDBRANCH  43  44
ENDBRANCH  27  43
BRANCH  24  49
HETATM   49  C28 UNL     1     -32.840   6.632   0.775  1.00  0.00     0.151 C 
BRANCH  49  50
HETATM   50  C29 UNL     1     -34.154   6.371   1.414  1.00  0.00     0.143 C 
HETATM   51  O9  UNL     1     -35.097   7.162   1.190  1.00  0.00    -0.650 OA
BRANCH  50  52
HETATM   52  O10 UNL     1     -34.389   5.293   2.248  1.00  0.00    -0.776 OA
HETATM   53  H25 UNL     1     -33.639   4.869   2.810  1.00  0.00     0.167 HD
ENDBRANCH  50  52
ENDBRANCH  49  50
ENDBRANCH  24  49
BRANCH  21  54
HETATM   54  C31 UNL     1     -32.617   8.504   3.240  1.00  0.00     0.052 C 
BRANCH  54  55
HETATM   55  C32 UNL     1     -31.498   7.699   3.796  1.00  0.00     0.115 C 
BRANCH  55  56
HETATM   56  C33 UNL     1     -32.130   6.485   4.432  1.00  0.00     0.139 C 
HETATM   57  O11 UNL     1     -32.996   6.605   5.334  1.00  0.00    -0.650 OA
BRANCH  56  58
HETATM   58  O12 UNL     1     -31.783   5.196   4.051  1.00  0.00    -0.776 OA
HETATM   59  H30 UNL     1     -32.125   4.902   3.132  1.00  0.00     0.167 HD
ENDBRANCH  56  58
ENDBRANCH  55  56
ENDBRANCH  54  55
ENDBRANCH  21  54
BRANCH  18  60
HETATM   60  C35 UNL     1     -33.204  14.053   2.859  1.00  0.00     0.151 C 
BRANCH  60  61
HETATM   61  C36 UNL     1     -32.485  13.900   4.126  1.00  0.00     0.143 C 
HETATM   62  O13 UNL     1     -32.876  13.043   4.968  1.00  0.00    -0.650 OA
BRANCH  61  63
HETATM   63  O14 UNL     1     -31.372  14.662   4.456  1.00  0.00    -0.776 OA
HETATM   64  H33 UNL     1     -30.832  15.070   3.712  1.00  0.00     0.167 HD
ENDBRANCH  61  63
ENDBRANCH  60  61
ENDBRANCH  18  60
BRANCH  14  65
HETATM   65  C38 UNL     1     -32.228  16.273   1.108  1.00  0.00     0.052 C 
BRANCH  65  66
HETATM   66  C39 UNL     1     -33.657  16.392   0.668  1.00  0.00     0.115 C 
BRANCH  66  67
HETATM   67  C40 UNL     1     -33.687  17.129  -0.650  1.00  0.00     0.139 C 
HETATM   68  O15 UNL     1     -34.738  17.153  -1.342  1.00  0.00    -0.650 OA
BRANCH  67  69
HETATM   69  O16 UNL     1     -32.574  17.779  -1.108  1.00  0.00    -0.776 OA
HETATM   70  H38 UNL     1     -32.210  17.618  -2.032  1.00  0.00     0.167 HD
ENDBRANCH  67  69
ENDBRANCH  66  67
ENDBRANCH  65  66
ENDBRANCH  14  65
ENDBRANCH   6   7
ENDBRANCH   5   6
ENDBRANCH   2   5
TORSDOF 28
ENDMDL
MODEL 5
REMARK VINA RESULT:      -7.8     19.162     24.842
REMARK  28 active torsions:
REMARK  status: ('A' for Active; 'I' for Inactive)
REMARK    1  A    between atoms: C1_2  and  O2_3 
REMARK    2  A    between atoms: C1_2  and  C2_4 
REMARK    3  A    between atoms: C2_4  and  C3_5 
REMARK    4  A    between atoms: C3_5  and  C4_6 
REMARK    5  A    between atoms: C5_7  and  C6_8 
REMARK    6  A    between atoms: C6_8  and  C7_9 
REMARK    7  A    between atoms: C7_9  and  O4_11 
REMARK    8  A    between atoms: C20_28  and  C21_29 
REMARK    9  A    between atoms: C21_29  and  C22_30 
REMARK   10  A    between atoms: C22_30  and  O6_32 
REMARK   11  A    between atoms: C23_33  and  C24_34 
REMARK   12  A    between atoms: C24_34  and  C25_35 
REMARK   13  A    between atoms: C25_35  and  C26_36 
REMARK   14  A    between atoms: C26_36  and  O8_38 
REMARK   15  A    between atoms: C27_39  and  C28_40 
REMARK   16  A    between atoms: C28_40  and  C29_41 
REMARK   17  A    between atoms: C29_41  and  O10_43 
REMARK   18  A    between atoms: C30_44  and  C31_45 
REMARK   19  A    between atoms: C31_45  and  C32_46 
REMARK   20  A    between atoms: C32_46  and  C33_47 
REMARK   21  A    between atoms: C33_47  and  O12_49 
REMARK   22  A    between atoms: C34_50  and  C35_51 
REMARK   23  A    between atoms: C35_51  and  C36_52 
REMARK   24  A    between atoms: C36_52  and  O14_54 
REMARK   25  A    between atoms: C37_55  and  C38_56 
REMARK   26  A    between atoms: C38_56  and  C39_57 
REMARK   27  A    between atoms: C39_57  and  C40_58 
REMARK   28  A    between atoms: C40_58  and  O16_60 
ROOT
HETATM    1  O1  UNL     1     -40.921 -15.958   1.679  1.00  0.00    -0.650 OA
HETATM    2  C1  UNL     1     -39.747 -15.612   1.495  1.00  0.00     0.139 C 
ENDROOT
BRANCH   2   3
HETATM    3  O2  UNL     1     -39.530 -14.391   0.853  1.00  0.00    -0.776 OA
HETATM    4  H1  UNL     1     -40.290 -13.794   0.545  1.00  0.00     0.167 HD
ENDBRANCH   2   3
BRANCH   2   5
HETATM    5  C2  UNL     1     -38.590 -16.424   1.921  1.00  0.00     0.115 C 
BRANCH   5   6
HETATM    6  C3  UNL     1     -38.207 -16.247   3.345  1.00  0.00     0.052 C 
BRANCH   6   7
HETATM    7  C4  UNL     1     -37.461 -14.974   3.537  1.00  0.00    -0.020 A 
HETATM    8  C5  UNL     1     -37.857 -13.888   4.205  1.00  0.00    -0.011 A 
HETATM    9  C8  UNL     1     -36.822 -12.884   4.141  1.00  0.00     0.067 A 
HETATM   10  C9  UNL     1     -36.707 -11.567   4.637  1.00  0.00     0.062 C 
HETATM   11  N4  UNL     1     -35.821 -13.395   3.432  1.00  0.00    -0.248 NA
HETATM   12  C10 UNL     1     -35.662 -10.690   4.351  1.00  0.00     0.041 A 
HETATM   13  N1  UNL     1     -34.954 -10.446   3.232  1.00  0.00    -0.355 N 
HETATM   14  C37 UNL     1     -35.157  -9.899   5.408  1.00  0.00    -0.022 A 
HETATM   15  C11 UNL     1     -34.015  -9.534   3.543  1.00  0.00     0.042 A 
HETATM   16  H10 UNL     1     -35.135 -10.892   2.225  1.00  0.00     0.166 HD
HETATM   17  C12 UNL     1     -32.983  -8.940   2.814  1.00  0.00     0.062 C 
HETATM   18  C34 UNL     1     -34.136  -9.183   4.906  1.00  0.00    -0.013 A 
HETATM   19  C13 UNL     1     -32.142  -9.613   1.908  1.00  0.00     0.066 A 
HETATM   20  N2  UNL     1     -32.319 -10.928   1.720  1.00  0.00    -0.248 NA
HETATM   21  C30 UNL     1     -31.055  -9.194   1.057  1.00  0.00    -0.020 A 
HETATM   22  C14 UNL     1     -31.430 -11.377   0.815  1.00  0.00     0.067 A 
HETATM   23  C15 UNL     1     -31.448 -12.734   0.464  1.00  0.00     0.062 C 
HETATM   24  C27 UNL     1     -30.602 -10.260   0.377  1.00  0.00    -0.011 A 
HETATM   25  C16 UNL     1     -32.480 -13.665   0.710  1.00  0.00     0.041 A 
HETATM   26  N3  UNL     1     -33.273 -13.815   1.778  1.00  0.00    -0.355 N 
HETATM   27  C23 UNL     1     -32.825 -14.593  -0.303  1.00  0.00    -0.022 A 
HETATM   28  C17 UNL     1     -34.135 -14.803   1.509  1.00  0.00     0.042 A 
HETATM   29  H13 UNL     1     -33.213 -13.239   2.740  1.00  0.00     0.166 HD
HETATM   30  C18 UNL     1     -35.182 -15.351   2.275  1.00  0.00     0.062 C 
HETATM   31  C20 UNL     1     -33.882 -15.308   0.217  1.00  0.00    -0.013 A 
HETATM   32  C19 UNL     1     -36.131 -14.653   3.033  1.00  0.00     0.066 A 
BRANCH   8  33
HETATM   33  C6  UNL     1     -39.168 -13.770   4.901  1.00  0.00     0.151 C 
BRANCH  33  34
HETATM   34  C7  UNL     1     -40.263 -13.326   4.008  1.00  0.00     0.143 C 
HETATM   35  O3  UNL     1     -40.041 -12.432   3.168  1.00  0.00    -0.650 OA
BRANCH  34  36
HETATM   36  O4  UNL     1     -41.497 -13.922   4.139  1.00  0.00    -0.776 OA
HETATM   37  H8  UNL     1     -41.572 -14.768   4.705  1.00  0.00     0.167 HD
ENDBRANCH  34  36
ENDBRANCH  33  34
ENDBRANCH   8  33
BRANCH  31  38
HETATM   38  C21 UNL     1     -34.632 -16.409  -0.507  1.00  0.00     0.151 C 
BRANCH  38  39
HETATM   39  C22 UNL     1     -33.709 -17.562  -0.617  1.00  0.00     0.143 C 
HETATM   40  O5  UNL     1     -33.214 -18.048   0.423  1.00  0.00    -0.650 OA
BRANCH  39  41
HETATM   41  O6  UNL     1     -33.359 -18.139  -1.828  1.00  0.00    -0.776 OA
HETATM   42  H17 UNL     1     -34.049 -18.642  -2.400  1.00  0.00     0.167 HD
ENDBRANCH  39  41
ENDBRANCH  38  39
ENDBRANCH  31  38
BRANCH  27  43
HETATM   43  C24 UNL     1     -32.229 -14.806  -1.649  1.00  0.00     0.052 C 
BRANCH  43  44
HETATM   44  C25 UNL     1     -32.980 -14.114  -2.706  1.00  0.00     0.115 C 
BRANCH  44  45
HETATM   45  C26 UNL     1     -32.975 -14.654  -4.063  1.00  0.00     0.139 C 
HETATM   46  O7  UNL     1     -32.467 -15.673  -4.519  1.00  0.00    -0.650 OA
BRANCH  45  47
HETATM   47  O8  UNL     1     -33.678 -13.860  -5.012  1.00  0.00    -0.776 OA
HETATM   48  H22 UNL     1     -33.316 -13.646  -5.908  1.00  0.00     0.167 HD
ENDBRANCH  45  47
ENDBRANCH  44  45
ENDBRANCH  43  44
ENDBRANCH  27  43
BRANCH  24  49
HETATM   49  C28 UNL     1     -29.491 -10.308  -0.625  1.00  0.00     0.151 C 
BRANCH  49  50
HETATM   50  C29 UNL     1     -29.963  -9.863  -1.960  1.00  0.00     0.143 C 
HETATM   51  O9  UNL     1     -29.224  -9.114  -2.638  1.00  0.00    -0.650 OA
BRANCH  50  52
HETATM   52  O10 UNL     1     -31.183 -10.236  -2.495  1.00  0.00    -0.776 OA
HETATM   53  H25 UNL     1     -31.630  -9.697  -3.248  1.00  0.00     0.167 HD
ENDBRANCH  50  52
ENDBRANCH  49  50
ENDBRANCH  24  49
BRANCH  21  54
HETATM   54  C31 UNL     1     -30.512  -7.814   0.913  1.00  0.00     0.052 C 
BRANCH  54  55
HETATM   55  C32 UNL     1     -29.161  -7.615   1.501  1.00  0.00     0.115 C 
BRANCH  55  56
HETATM   56  C33 UNL     1     -28.259  -7.221   0.357  1.00  0.00     0.139 C 
HETATM   57  O11 UNL     1     -27.056  -7.582   0.329  1.00  0.00    -0.650 OA
BRANCH  56  58
HETATM   58  O12 UNL     1     -28.717  -6.450  -0.703  1.00  0.00    -0.776 OA
HETATM   59  H30 UNL     1     -27.996  -6.123  -1.352  1.00  0.00     0.167 HD
ENDBRANCH  56  58
ENDBRANCH  55  56
ENDBRANCH  54  55
ENDBRANCH  21  54
BRANCH  18  60
HETATM   60  C35 UNL     1     -33.346  -8.200   5.719  1.00  0.00     0.151 C 
BRANCH  60  61
HETATM   61  C36 UNL     1     -34.014  -6.901   5.614  1.00  0.00     0.143 C 
HETATM   62  O13 UNL     1     -34.821  -6.687   4.667  1.00  0.00    -0.650 OA
BRANCH  61  63
HETATM   63  O14 UNL     1     -33.804  -5.873   6.523  1.00  0.00    -0.776 OA
HETATM   64  H33 UNL     1     -34.472  -5.121   6.561  1.00  0.00     0.167 HD
ENDBRANCH  61  63
ENDBRANCH  60  61
ENDBRANCH  18  60
BRANCH  14  65
HETATM   65  C38 UNL     1     -35.619  -9.794   6.833  1.00  0.00     0.052 C 
BRANCH  65  66
HETATM   66  C39 UNL     1     -36.616  -8.679   6.954  1.00  0.00     0.115 C 
BRANCH  66  67
HETATM   67  C40 UNL     1     -37.914  -9.259   7.465  1.00  0.00     0.139 C 
HETATM   68  O15 UNL     1     -38.869  -8.502   7.781  1.00  0.00    -0.650 OA
BRANCH  67  69
HETATM   69  O16 UNL     1     -38.070 -10.612   7.591  1.00  0.00    -0.776 OA
HETATM   70  H38 UNL     1     -37.324 -11.253   7.377  1.00  0.00     0.167 HD
ENDBRANCH  67  69
ENDBRANCH  66  67
ENDBRANCH  65  66
ENDBRANCH  14  65
ENDBRANCH   6   7
ENDBRANCH   5   6
ENDBRANCH   2   5
TORSDOF 28
ENDMDL
MODEL 6
REMARK VINA RESULT:      -7.7      1.518      7.633
REMARK  28 active torsions:
REMARK  status: ('A' for Active; 'I' for Inactive)
REMARK    1  A    between atoms: C1_2  and  O2_3 
REMARK    2  A    between atoms: C1_2  and  C2_4 
REMARK    3  A    between atoms: C2_4  and  C3_5 
REMARK    4  A    between atoms: C3_5  and  C4_6 
REMARK    5  A    between atoms: C5_7  and  C6_8 
REMARK    6  A    between atoms: C6_8  and  C7_9 
REMARK    7  A    between atoms: C7_9  and  O4_11 
REMARK    8  A    between atoms: C20_28  and  C21_29 
REMARK    9  A    between atoms: C21_29  and  C22_30 
REMARK   10  A    between atoms: C22_30  and  O6_32 
REMARK   11  A    between atoms: C23_33  and  C24_34 
REMARK   12  A    between atoms: C24_34  and  C25_35 
REMARK   13  A    between atoms: C25_35  and  C26_36 
REMARK   14  A    between atoms: C26_36  and  O8_38 
REMARK   15  A    between atoms: C27_39  and  C28_40 
REMARK   16  A    between atoms: C28_40  and  C29_41 
REMARK   17  A    between atoms: C29_41  and  O10_43 
REMARK   18  A    between atoms: C30_44  and  C31_45 
REMARK   19  A    between atoms: C31_45  and  C32_46 
REMARK   20  A    between atoms: C32_46  and  C33_47 
REMARK   21  A    between atoms: C33_47  and  O12_49 
REMARK   22  A    between atoms: C34_50  and  C35_51 
REMARK   23  A    between atoms: C35_51  and  C36_52 
REMARK   24  A    between atoms: C36_52  and  O14_54 
REMARK   25  A    between atoms: C37_55  and  C38_56 
REMARK   26  A    between atoms: C38_56  and  C39_57 
REMARK   27  A    between atoms: C39_57  and  C40_58 
REMARK   28  A    between atoms: C40_58  and  O16_60 
ROOT
HETATM    1  O1  UNL     1     -27.094  18.902  -5.060  1.00  0.00    -0.650 OA
HETATM    2  C1  UNL     1     -26.820  18.082  -4.174  1.00  0.00     0.139 C 
ENDROOT
BRANCH   2   3
HETATM    3  O2  UNL     1     -25.516  17.584  -4.141  1.00  0.00    -0.776 OA
HETATM    4  H1  UNL     1     -24.738  18.116  -3.768  1.00  0.00     0.167 HD
ENDBRANCH   2   3
BRANCH   2   5
HETATM    5  C2  UNL     1     -27.799  17.622  -3.170  1.00  0.00     0.115 C 
BRANCH   5   6
HETATM    6  C3  UNL     1     -29.153  17.347  -3.713  1.00  0.00     0.052 C 
BRANCH   6   7
HETATM    7  C4  UNL     1     -29.480  15.899  -3.614  1.00  0.00    -0.020 A 
HETATM    8  C5  UNL     1     -29.543  15.006  -4.605  1.00  0.00    -0.011 A 
HETATM    9  C8  UNL     1     -29.891  13.715  -4.062  1.00  0.00     0.067 A 
HETATM   10  C9  UNL     1     -30.113  12.443  -4.634  1.00  0.00     0.062 C 
HETATM   11  N4  UNL     1     -30.028  13.864  -2.748  1.00  0.00    -0.248 NA
HETATM   12  C10 UNL     1     -30.581  11.325  -3.947  1.00  0.00     0.041 A 
HETATM   13  N1  UNL     1     -31.501  11.168  -2.976  1.00  0.00    -0.355 N 
HETATM   14  C37 UNL     1     -29.987  10.075  -4.237  1.00  0.00    -0.022 A 
HETATM   15  C11 UNL     1     -31.507   9.866  -2.636  1.00  0.00     0.042 A 
HETATM   16  H10 UNL     1     -32.160  11.964  -2.555  1.00  0.00     0.166 HD
HETATM   17  C12 UNL     1     -32.209   9.133  -1.677  1.00  0.00     0.062 C 
HETATM   18  C34 UNL     1     -30.562   9.172  -3.424  1.00  0.00    -0.013 A 
HETATM   19  C13 UNL     1     -32.462   9.559  -0.360  1.00  0.00     0.066 A 
HETATM   20  N2  UNL     1     -31.996  10.753   0.032  1.00  0.00    -0.248 NA
HETATM   21  C30 UNL     1     -33.167   8.979   0.757  1.00  0.00    -0.020 A 
HETATM   22  C14 UNL     1     -32.351  10.978   1.310  1.00  0.00     0.067 A 
HETATM   23  C15 UNL     1     -31.968  12.181   1.918  1.00  0.00     0.062 C 
HETATM   24  C27 UNL     1     -33.112   9.831   1.794  1.00  0.00    -0.011 A 
HETATM   25  C16 UNL     1     -31.503  13.350   1.277  1.00  0.00     0.041 A 
HETATM   26  N3  UNL     1     -30.691  13.493   0.222  1.00  0.00    -0.355 N 
HETATM   27  C23 UNL     1     -31.959  14.612   1.732  1.00  0.00    -0.022 A 
HETATM   28  C17 UNL     1     -30.595  14.801  -0.043  1.00  0.00     0.042 A 
HETATM   29  H13 UNL     1     -30.159  12.670  -0.327  1.00  0.00     0.166 HD
HETATM   30  C18 UNL     1     -29.889  15.492  -1.046  1.00  0.00     0.062 C 
HETATM   31  C20 UNL     1     -31.377  15.526   0.881  1.00  0.00    -0.013 A 
HETATM   32  C19 UNL     1     -29.795  15.153  -2.401  1.00  0.00     0.066 A 
BRANCH   8  33
HETATM   33  C6  UNL     1     -29.283  15.329  -6.035  1.00  0.00     0.151 C 
BRANCH  33  34
HETATM   34  C7  UNL     1     -27.841  15.363  -6.370  1.00  0.00     0.143 C 
HETATM   35  O3  UNL     1     -27.110  14.417  -6.017  1.00  0.00    -0.650 OA
BRANCH  34  36
HETATM   36  O4  UNL     1     -27.357  16.448  -7.066  1.00  0.00    -0.776 OA
HETATM   37  H8  UNL     1     -26.505  16.900  -6.733  1.00  0.00     0.167 HD
ENDBRANCH  34  36
ENDBRANCH  33  34
ENDBRANCH   8  33
BRANCH  31  38
HETATM   38  C21 UNL     1     -31.585  17.027   0.936  1.00  0.00     0.151 C 
BRANCH  38  39
HETATM   39  C22 UNL     1     -32.386  17.396  -0.254  1.00  0.00     0.143 C 
HETATM   40  O5  UNL     1     -33.519  16.889  -0.408  1.00  0.00    -0.650 OA
BRANCH  39  41
HETATM   41  O6  UNL     1     -31.943  18.287  -1.219  1.00  0.00    -0.776 OA
HETATM   42  H17 UNL     1     -32.150  19.292  -1.154  1.00  0.00     0.167 HD
ENDBRANCH  39  41
ENDBRANCH  38  39
ENDBRANCH  31  38
BRANCH  27  43
HETATM   43  C24 UNL     1     -32.863  14.952   2.863  1.00  0.00     0.052 C 
BRANCH  43  44
HETATM   44  C25 UNL     1     -34.278  14.950   2.465  1.00  0.00     0.115 C 
BRANCH  44  45
HETATM   45  C26 UNL     1     -35.135  13.838   2.865  1.00  0.00     0.139 C 
HETATM   46  O7  UNL     1     -34.948  12.927   3.665  1.00  0.00    -0.650 OA
BRANCH  45  47
HETATM   47  O8  UNL     1     -36.399  13.809   2.212  1.00  0.00    -0.776 OA
HETATM   48  H22 UNL     1     -36.869  12.968   1.985  1.00  0.00     0.167 HD
ENDBRANCH  45  47
ENDBRANCH  44  45
ENDBRANCH  43  44
ENDBRANCH  27  43
BRANCH  24  49
HETATM   49  C28 UNL     1     -33.705   9.662   3.157  1.00  0.00     0.151 C 
BRANCH  49  50
HETATM   50  C29 UNL     1     -35.175   9.860   3.124  1.00  0.00     0.143 C 
HETATM   51  O9  UNL     1     -35.882   9.248   3.956  1.00  0.00    -0.650 OA
BRANCH  50  52
HETATM   52  O10 UNL     1     -35.807  10.689   2.214  1.00  0.00    -0.776 OA
HETATM   53  H25 UNL     1     -35.665  11.708   2.222  1.00  0.00     0.167 HD
ENDBRANCH  50  52
ENDBRANCH  49  50
ENDBRANCH  24  49
BRANCH  21  54
HETATM   54  C31 UNL     1     -33.871   7.666   0.787  1.00  0.00     0.052 C 
BRANCH  54  55
HETATM   55  C32 UNL     1     -32.973   6.482   0.789  1.00  0.00     0.115 C 
BRANCH  55  56
HETATM   56  C33 UNL     1     -32.483   6.328   2.208  1.00  0.00     0.139 C 
HETATM   57  O11 UNL     1     -31.254   6.331   2.472  1.00  0.00    -0.650 OA
BRANCH  56  58
HETATM   58  O12 UNL     1     -33.362   6.179   3.273  1.00  0.00    -0.776 OA
HETATM   59  H30 UNL     1     -32.954   6.315   4.202  1.00  0.00     0.167 HD
ENDBRANCH  56  58
ENDBRANCH  55  56
ENDBRANCH  54  55
ENDBRANCH  21  54
BRANCH  18  60
HETATM   60  C35 UNL     1     -30.211   7.713  -3.442  1.00  0.00     0.151 C 
BRANCH  60  61
HETATM   61  C36 UNL     1     -31.399   6.978  -3.881  1.00  0.00     0.143 C 
HETATM   62  O13 UNL     1     -31.663   5.853  -3.371  1.00  0.00    -0.650 OA
BRANCH  61  63
HETATM   63  O14 UNL     1     -32.269   7.465  -4.848  1.00  0.00    -0.776 OA
HETATM   64  H33 UNL     1     -32.296   7.008  -5.744  1.00  0.00     0.167 HD
ENDBRANCH  61  63
ENDBRANCH  60  61
ENDBRANCH  18  60
BRANCH  14  65
HETATM   65  C38 UNL     1     -28.936   9.726  -5.250  1.00  0.00     0.052 C 
BRANCH  65  66
HETATM   66  C39 UNL     1     -29.479   9.949  -6.631  1.00  0.00     0.115 C 
BRANCH  66  67
HETATM   67  C40 UNL     1     -30.341   8.763  -6.997  1.00  0.00     0.139 C 
HETATM   68  O15 UNL     1     -31.531   8.933  -7.372  1.00  0.00    -0.650 OA
BRANCH  67  69
HETATM   69  O16 UNL     1     -29.843   7.492  -6.924  1.00  0.00    -0.776 OA
HETATM   70  H38 UNL     1     -30.185   6.755  -7.518  1.00  0.00     0.167 HD
ENDBRANCH  67  69
ENDBRANCH  66  67
ENDBRANCH  65  66
ENDBRANCH  14  65
ENDBRANCH   6   7
ENDBRANCH   5   6
ENDBRANCH   2   5
TORSDOF 28
ENDMDL
MODEL 7
REMARK VINA RESULT:      -7.4     26.643     29.150
REMARK  28 active torsions:
REMARK  status: ('A' for Active; 'I' for Inactive)
REMARK    1  A    between atoms: C1_2  and  O2_3 
REMARK    2  A    between atoms: C1_2  and  C2_4 
REMARK    3  A    between atoms: C2_4  and  C3_5 
REMARK    4  A    between atoms: C3_5  and  C4_6 
REMARK    5  A    between atoms: C5_7  and  C6_8 
REMARK    6  A    between atoms: C6_8  and  C7_9 
REMARK    7  A    between atoms: C7_9  and  O4_11 
REMARK    8  A    between atoms: C20_28  and  C21_29 
REMARK    9  A    between atoms: C21_29  and  C22_30 
REMARK   10  A    between atoms: C22_30  and  O6_32 
REMARK   11  A    between atoms: C23_33  and  C24_34 
REMARK   12  A    between atoms: C24_34  and  C25_35 
REMARK   13  A    between atoms: C25_35  and  C26_36 
REMARK   14  A    between atoms: C26_36  and  O8_38 
REMARK   15  A    between atoms: C27_39  and  C28_40 
REMARK   16  A    between atoms: C28_40  and  C29_41 
REMARK   17  A    between atoms: C29_41  and  O10_43 
REMARK   18  A    between atoms: C30_44  and  C31_45 
REMARK   19  A    between atoms: C31_45  and  C32_46 
REMARK   20  A    between atoms: C32_46  and  C33_47 
REMARK   21  A    between atoms: C33_47  and  O12_49 
REMARK   22  A    between atoms: C34_50  and  C35_51 
REMARK   23  A    between atoms: C35_51  and  C36_52 
REMARK   24  A    between atoms: C36_52  and  O14_54 
REMARK   25  A    between atoms: C37_55  and  C38_56 
REMARK   26  A    between atoms: C38_56  and  C39_57 
REMARK   27  A    between atoms: C39_57  and  C40_58 
REMARK   28  A    between atoms: C40_58  and  O16_60 
ROOT
HETATM    1  O1  UNL     1       0.546   1.595   9.689  1.00  0.00    -0.650 OA
HETATM    2  C1  UNL     1      -0.226   1.697  10.649  1.00  0.00     0.139 C 
ENDROOT
BRANCH   2   3
HETATM    3  O2  UNL     1      -1.148   0.666  10.845  1.00  0.00    -0.776 OA
HETATM    4  H1  UNL     1      -1.503   0.418  11.762  1.00  0.00     0.167 HD
ENDBRANCH   2   3
BRANCH   2   5
HETATM    5  C2  UNL     1      -0.210   2.842  11.580  1.00  0.00     0.115 C 
BRANCH   5   6
HETATM    6  C3  UNL     1      -1.455   3.650  11.582  1.00  0.00     0.052 C 
BRANCH   6   7
HETATM    7  C4  UNL     1      -1.801   4.092  10.204  1.00  0.00    -0.020 A 
HETATM    8  C5  UNL     1      -1.196   5.032   9.473  1.00  0.00    -0.011 A 
HETATM    9  C8  UNL     1      -1.855   5.137   8.192  1.00  0.00     0.067 A 
HETATM   10  C9  UNL     1      -1.661   5.957   7.059  1.00  0.00     0.062 C 
HETATM   11  N4  UNL     1      -2.845   4.251   8.185  1.00  0.00    -0.248 NA
HETATM   12  C10 UNL     1      -2.502   6.003   5.949  1.00  0.00     0.041 A 
HETATM   13  N1  UNL     1      -3.840   5.945   5.813  1.00  0.00    -0.355 N 
HETATM   14  C37 UNL     1      -1.903   6.076   4.671  1.00  0.00    -0.022 A 
HETATM   15  C11 UNL     1      -4.111   5.973   4.495  1.00  0.00     0.042 A 
HETATM   16  H10 UNL     1      -4.588   5.915   6.641  1.00  0.00     0.166 HD
HETATM   17  C12 UNL     1      -5.297   5.898   3.762  1.00  0.00     0.062 C 
HETATM   18  C34 UNL     1      -2.901   6.057   3.770  1.00  0.00    -0.013 A 
HETATM   19  C13 UNL     1      -6.368   5.029   4.044  1.00  0.00     0.066 A 
HETATM   20  N2  UNL     1      -6.262   4.192   5.086  1.00  0.00    -0.248 NA
HETATM   21  C30 UNL     1      -7.660   4.812   3.441  1.00  0.00    -0.020 A 
HETATM   22  C14 UNL     1      -7.386   3.461   5.192  1.00  0.00     0.067 A 
HETATM   23  C15 UNL     1      -7.487   2.522   6.228  1.00  0.00     0.062 C 
HETATM   24  C27 UNL     1      -8.303   3.853   4.128  1.00  0.00    -0.011 A 
HETATM   25  C16 UNL     1      -6.680   2.435   7.383  1.00  0.00     0.041 A 
HETATM   26  N3  UNL     1      -5.364   2.627   7.533  1.00  0.00    -0.355 N 
HETATM   27  C23 UNL     1      -7.289   2.150   8.629  1.00  0.00    -0.022 A 
HETATM   28  C17 UNL     1      -5.078   2.486   8.833  1.00  0.00     0.042 A 
HETATM   29  H13 UNL     1      -4.622   2.840   6.717  1.00  0.00     0.166 HD
HETATM   30  C18 UNL     1      -3.860   2.598   9.530  1.00  0.00     0.062 C 
HETATM   31  C20 UNL     1      -6.260   2.189   9.544  1.00  0.00    -0.013 A 
HETATM   32  C19 UNL     1      -2.877   3.581   9.363  1.00  0.00     0.066 A 
BRANCH   8  33
HETATM   33  C6  UNL     1      -0.024   5.823   9.937  1.00  0.00     0.151 C 
BRANCH  33  34
HETATM   34  C7  UNL     1       1.270   5.273   9.470  1.00  0.00     0.143 C 
HETATM   35  O3  UNL     1       1.320   4.672   8.379  1.00  0.00    -0.650 OA
BRANCH  34  36
HETATM   36  O4  UNL     1       2.380   5.448  10.266  1.00  0.00    -0.776 OA
HETATM   37  H8  UNL     1       3.280   5.105   9.930  1.00  0.00     0.167 HD
ENDBRANCH  34  36
ENDBRANCH  33  34
ENDBRANCH   8  33
BRANCH  31  38
HETATM   38  C21 UNL     1      -6.410   1.978  11.038  1.00  0.00     0.151 C 
BRANCH  38  39
HETATM   39  C22 UNL     1      -6.863   3.266  11.612  1.00  0.00     0.143 C 
HETATM   40  O5  UNL     1      -6.042   4.201  11.736  1.00  0.00    -0.650 OA
BRANCH  39  41
HETATM   41  O6  UNL     1      -8.167   3.494  12.024  1.00  0.00    -0.776 OA
HETATM   42  H17 UNL     1      -8.910   3.717  11.350  1.00  0.00     0.167 HD
ENDBRANCH  39  41
ENDBRANCH  38  39
ENDBRANCH  31  38
BRANCH  27  43
HETATM   43  C24 UNL     1      -8.712   1.864   8.955  1.00  0.00     0.052 C 
BRANCH  43  44
HETATM   44  C25 UNL     1      -9.626   2.866   8.386  1.00  0.00     0.115 C 
BRANCH  44  45
HETATM   45  C26 UNL     1     -10.863   2.429   7.746  1.00  0.00     0.139 C 
HETATM   46  O7  UNL     1     -12.004   2.872   7.820  1.00  0.00    -0.650 OA
BRANCH  45  47
HETATM   47  O8  UNL     1     -10.714   1.297   6.896  1.00  0.00    -0.776 OA
HETATM   48  H22 UNL     1     -10.833   0.367   7.214  1.00  0.00     0.167 HD
ENDBRANCH  45  47
ENDBRANCH  44  45
ENDBRANCH  43  44
ENDBRANCH  27  43
BRANCH  24  49
HETATM   49  C28 UNL     1      -9.670   3.299   3.876  1.00  0.00     0.151 C 
BRANCH  49  50
HETATM   50  C29 UNL     1      -9.594   1.894   3.406  1.00  0.00     0.143 C 
HETATM   51  O9  UNL     1      -9.216   1.673   2.233  1.00  0.00    -0.650 OA
BRANCH  50  52
HETATM   52  O10 UNL     1      -9.921   0.811   4.202  1.00  0.00    -0.776 OA
HETATM   53  H25 UNL     1     -10.202   0.927   5.185  1.00  0.00     0.167 HD
ENDBRANCH  50  52
ENDBRANCH  49  50
ENDBRANCH  24  49
BRANCH  21  54
HETATM   54  C31 UNL     1      -8.230   5.527   2.265  1.00  0.00     0.052 C 
BRANCH  54  55
HETATM   55  C32 UNL     1      -8.135   4.782   0.981  1.00  0.00     0.115 C 
BRANCH  55  56
HETATM   56  C33 UNL     1      -6.981   5.393   0.225  1.00  0.00     0.139 C 
HETATM   57  O11 UNL     1      -7.029   6.582  -0.177  1.00  0.00    -0.650 OA
BRANCH  56  58
HETATM   58  O12 UNL     1      -5.828   4.672  -0.056  1.00  0.00    -0.776 OA
HETATM   59  H30 UNL     1      -5.449   4.129   0.724  1.00  0.00     0.167 HD
ENDBRANCH  56  58
ENDBRANCH  55  56
ENDBRANCH  54  55
ENDBRANCH  21  54
BRANCH  18  60
HETATM   60  C35 UNL     1      -2.671   6.137   2.290  1.00  0.00     0.151 C 
BRANCH  60  61
HETATM   61  C36 UNL     1      -2.451   4.774   1.802  1.00  0.00     0.143 C 
HETATM   62  O13 UNL     1      -1.274   4.331   1.694  1.00  0.00    -0.650 OA
BRANCH  61  63
HETATM   63  O14 UNL     1      -3.492   3.926   1.447  1.00  0.00    -0.776 OA
HETATM   64  H33 UNL     1      -3.473   3.498   0.536  1.00  0.00     0.167 HD
ENDBRANCH  61  63
ENDBRANCH  60  61
ENDBRANCH  18  60
BRANCH  14  65
HETATM   65  C38 UNL     1      -0.453   6.180   4.296  1.00  0.00     0.052 C 
BRANCH  65  66
HETATM   66  C39 UNL     1      -0.041   7.623   4.292  1.00  0.00     0.115 C 
BRANCH  66  67
HETATM   67  C40 UNL     1       0.333   8.004   2.879  1.00  0.00     0.139 C 
HETATM   68  O15 UNL     1      -0.228   8.978   2.312  1.00  0.00    -0.650 OA
BRANCH  67  69
HETATM   69  O16 UNL     1       1.285   7.298   2.197  1.00  0.00    -0.776 OA
HETATM   70  H38 UNL     1       1.096   6.386   1.816  1.00  0.00     0.167 HD
ENDBRANCH  67  69
ENDBRANCH  66  67
ENDBRANCH  65  66
ENDBRANCH  14  65
ENDBRANCH   6   7
ENDBRANCH   5   6
ENDBRANCH   2   5
TORSDOF 28
ENDMDL
MODEL 8
REMARK VINA RESULT:      -7.3     17.846     20.853
REMARK  28 active torsions:
REMARK  status: ('A' for Active; 'I' for Inactive)
REMARK    1  A    between atoms: C1_2  and  O2_3 
REMARK    2  A    between atoms: C1_2  and  C2_4 
REMARK    3  A    between atoms: C2_4  and  C3_5 
REMARK    4  A    between atoms: C3_5  and  C4_6 
REMARK    5  A    between atoms: C5_7  and  C6_8 
REMARK    6  A    between atoms: C6_8  and  C7_9 
REMARK    7  A    between atoms: C7_9  and  O4_11 
REMARK    8  A    between atoms: C20_28  and  C21_29 
REMARK    9  A    between atoms: C21_29  and  C22_30 
REMARK   10  A    between atoms: C22_30  and  O6_32 
REMARK   11  A    between atoms: C23_33  and  C24_34 
REMARK   12  A    between atoms: C24_34  and  C25_35 
REMARK   13  A    between atoms: C25_35  and  C26_36 
REMARK   14  A    between atoms: C26_36  and  O8_38 
REMARK   15  A    between atoms: C27_39  and  C28_40 
REMARK   16  A    between atoms: C28_40  and  C29_41 
REMARK   17  A    between atoms: C29_41  and  O10_43 
REMARK   18  A    between atoms: C30_44  and  C31_45 
REMARK   19  A    between atoms: C31_45  and  C32_46 
REMARK   20  A    between atoms: C32_46  and  C33_47 
REMARK   21  A    between atoms: C33_47  and  O12_49 
REMARK   22  A    between atoms: C34_50  and  C35_51 
REMARK   23  A    between atoms: C35_51  and  C36_52 
REMARK   24  A    between atoms: C36_52  and  O14_54 
REMARK   25  A    between atoms: C37_55  and  C38_56 
REMARK   26  A    between atoms: C38_56  and  C39_57 
REMARK   27  A    between atoms: C39_57  and  C40_58 
REMARK   28  A    between atoms: C40_58  and  O16_60 
ROOT
HETATM    1  O1  UNL     1     -18.860   2.097   8.696  1.00  0.00    -0.650 OA
HETATM    2  C1  UNL     1     -18.569   2.552   7.584  1.00  0.00     0.139 C 
ENDROOT
BRANCH   2   3
HETATM    3  O2  UNL     1     -17.735   1.780   6.771  1.00  0.00    -0.776 OA
HETATM    4  H1  UNL     1     -17.828   1.754   5.762  1.00  0.00     0.167 HD
ENDBRANCH   2   3
BRANCH   2   5
HETATM    5  C2  UNL     1     -19.060   3.853   7.090  1.00  0.00     0.115 C 
BRANCH   5   6
HETATM    6  C3  UNL     1     -18.419   5.033   7.724  1.00  0.00     0.052 C 
BRANCH   6   7
HETATM    7  C4  UNL     1     -16.973   5.097   7.381  1.00  0.00    -0.020 A 
HETATM    8  C5  UNL     1     -15.932   5.030   8.215  1.00  0.00    -0.011 A 
HETATM    9  C8  UNL     1     -14.706   5.130   7.459  1.00  0.00     0.067 A 
HETATM   10  C9  UNL     1     -13.339   5.141   7.811  1.00  0.00     0.062 C 
HETATM   11  N4  UNL     1     -15.043   5.254   6.179  1.00  0.00    -0.248 NA
HETATM   12  C10 UNL     1     -12.286   5.386   6.932  1.00  0.00     0.041 A 
HETATM   13  N1  UNL     1     -12.137   6.237   5.898  1.00  0.00    -0.355 N 
HETATM   14  C37 UNL     1     -11.124   4.590   7.056  1.00  0.00    -0.022 A 
HETATM   15  C11 UNL     1     -10.926   6.005   5.359  1.00  0.00     0.042 A 
HETATM   16  H10 UNL     1     -12.869   7.013   5.571  1.00  0.00     0.166 HD
HETATM   17  C12 UNL     1     -10.253   6.540   4.260  1.00  0.00     0.062 C 
HETATM   18  C34 UNL     1     -10.282   4.975   6.080  1.00  0.00    -0.013 A 
HETATM   19  C13 UNL     1     -10.840   6.827   3.013  1.00  0.00     0.066 A 
HETATM   20  N2  UNL     1     -12.144   6.567   2.840  1.00  0.00    -0.248 NA
HETATM   21  C30 UNL     1     -10.340   7.388   1.782  1.00  0.00    -0.020 A 
HETATM   22  C14 UNL     1     -12.511   6.921   1.595  1.00  0.00     0.067 A 
HETATM   23  C15 UNL     1     -13.845   6.738   1.206  1.00  0.00     0.062 C 
HETATM   24  C27 UNL     1     -11.348   7.455   0.896  1.00  0.00    -0.011 A 
HETATM   25  C16 UNL     1     -14.955   6.504   2.046  1.00  0.00     0.041 A 
HETATM   26  N3  UNL     1     -15.058   5.760   3.154  1.00  0.00    -0.355 N 
HETATM   27  C23 UNL     1     -16.179   7.161   1.770  1.00  0.00    -0.022 A 
HETATM   28  C17 UNL     1     -16.302   5.902   3.626  1.00  0.00     0.042 A 
HETATM   29  H13 UNL     1     -14.258   5.107   3.597  1.00  0.00     0.166 HD
HETATM   30  C18 UNL     1     -16.929   5.357   4.763  1.00  0.00     0.062 C 
HETATM   31  C20 UNL     1     -17.026   6.773   2.785  1.00  0.00    -0.013 A 
HETATM   32  C19 UNL     1     -16.393   5.242   6.051  1.00  0.00     0.066 A 
BRANCH   8  33
HETATM   33  C6  UNL     1     -16.055   4.871   9.690  1.00  0.00     0.151 C 
BRANCH  33  34
HETATM   34  C7  UNL     1     -15.835   6.134  10.432  1.00  0.00     0.143 C 
HETATM   35  O3  UNL     1     -14.723   6.352  10.950  1.00  0.00    -0.650 OA
BRANCH  34  36
HETATM   36  O4  UNL     1     -16.879   7.028  10.523  1.00  0.00    -0.776 OA
HETATM   37  H8  UNL     1     -16.905   7.667  11.317  1.00  0.00     0.167 HD
ENDBRANCH  34  36
ENDBRANCH  33  34
ENDBRANCH   8  33
BRANCH  31  38
HETATM   38  C21 UNL     1     -18.458   7.240   2.953  1.00  0.00     0.151 C 
BRANCH  38  39
HETATM   39  C22 UNL     1     -18.416   8.476   3.768  1.00  0.00     0.143 C 
HETATM   40  O5  UNL     1     -19.392   9.258   3.742  1.00  0.00    -0.650 OA
BRANCH  39  41
HETATM   41  O6  UNL     1     -17.339   8.817   4.572  1.00  0.00    -0.776 OA
HETATM   42  H17 UNL     1     -17.057   8.229   5.366  1.00  0.00     0.167 HD
ENDBRANCH  39  41
ENDBRANCH  38  39
ENDBRANCH  31  38
BRANCH  27  43
HETATM   43  C24 UNL     1     -16.542   8.079   0.657  1.00  0.00     0.052 C 
BRANCH  43  44
HETATM   44  C25 UNL     1     -16.465   9.493   1.054  1.00  0.00     0.115 C 
BRANCH  44  45
HETATM   45  C26 UNL     1     -15.329   9.956   1.845  1.00  0.00     0.139 C 
HETATM   46  O7  UNL     1     -15.203  10.109   3.056  1.00  0.00    -0.650 OA
BRANCH  45  47
HETATM   47  O8  UNL     1     -14.178  10.288   1.078  1.00  0.00    -0.776 OA
HETATM   48  H22 UNL     1     -13.848   9.725   0.333  1.00  0.00     0.167 HD
ENDBRANCH  45  47
ENDBRANCH  44  45
ENDBRANCH  43  44
ENDBRANCH  27  43
BRANCH  24  49
HETATM   49  C28 UNL     1     -11.306   7.971  -0.508  1.00  0.00     0.151 C 
BRANCH  49  50
HETATM   50  C29 UNL     1     -10.961   9.414  -0.532  1.00  0.00     0.143 C 
HETATM   51  O9  UNL     1     -11.626  10.202   0.177  1.00  0.00    -0.650 OA
BRANCH  50  52
HETATM   52  O10 UNL     1      -9.936   9.934  -1.302  1.00  0.00    -0.776 OA
HETATM   53  H25 UNL     1      -9.096   9.385  -1.527  1.00  0.00     0.167 HD
ENDBRANCH  50  52
ENDBRANCH  49  50
ENDBRANCH  24  49
BRANCH  21  54
HETATM   54  C31 UNL     1      -8.950   7.849   1.508  1.00  0.00     0.052 C 
BRANCH  54  55
HETATM   55  C32 UNL     1      -8.063   6.819   0.907  1.00  0.00     0.115 C 
BRANCH  55  56
HETATM   56  C33 UNL     1      -7.746   7.298  -0.489  1.00  0.00     0.139 C 
HETATM   57  O11 UNL     1      -7.405   8.488  -0.701  1.00  0.00    -0.650 OA
BRANCH  56  58
HETATM   58  O12 UNL     1      -7.817   6.451  -1.586  1.00  0.00    -0.776 OA
HETATM   59  H30 UNL     1      -7.562   6.872  -2.484  1.00  0.00     0.167 HD
ENDBRANCH  56  58
ENDBRANCH  55  56
ENDBRANCH  54  55
ENDBRANCH  21  54
BRANCH  18  60
HETATM   60  C35 UNL     1      -8.921   4.374   5.889  1.00  0.00     0.151 C 
BRANCH  60  61
HETATM   61  C36 UNL     1      -8.018   5.010   6.850  1.00  0.00     0.143 C 
HETATM   62  O13 UNL     1      -7.586   6.176   6.626  1.00  0.00    -0.650 OA
BRANCH  61  63
HETATM   63  O14 UNL     1      -7.605   4.386   8.020  1.00  0.00    -0.776 OA
HETATM   64  H33 UNL     1      -7.800   4.836   8.899  1.00  0.00     0.167 HD
ENDBRANCH  61  63
ENDBRANCH  60  61
ENDBRANCH  18  60
BRANCH  14  65
HETATM   65  C38 UNL     1     -10.796   3.522   8.059  1.00  0.00     0.052 C 
BRANCH  65  66
HETATM   66  C39 UNL     1     -10.928   2.174   7.413  1.00  0.00     0.115 C 
BRANCH  66  67
HETATM   67  C40 UNL     1      -9.623   1.434   7.594  1.00  0.00     0.139 C 
HETATM   68  O15 UNL     1      -8.931   1.610   8.631  1.00  0.00    -0.650 OA
BRANCH  67  69
HETATM   69  O16 UNL     1      -9.178   0.565   6.638  1.00  0.00    -0.776 OA
HETATM   70  H38 UNL     1      -8.237   0.208   6.643  1.00  0.00     0.167 HD
ENDBRANCH  67  69
ENDBRANCH  66  67
ENDBRANCH  65  66
ENDBRANCH  14  65
ENDBRANCH   6   7
ENDBRANCH   5   6
ENDBRANCH   2   5
TORSDOF 28
ENDMDL
MODEL 9
REMARK VINA RESULT:      -7.2     17.821     21.283
REMARK  28 active torsions:
REMARK  status: ('A' for Active; 'I' for Inactive)
REMARK    1  A    between atoms: C1_2  and  O2_3 
REMARK    2  A    between atoms: C1_2  and  C2_4 
REMARK    3  A    between atoms: C2_4  and  C3_5 
REMARK    4  A    between atoms: C3_5  and  C4_6 
REMARK    5  A    between atoms: C5_7  and  C6_8 
REMARK    6  A    between atoms: C6_8  and  C7_9 
REMARK    7  A    between atoms: C7_9  and  O4_11 
REMARK    8  A    between atoms: C20_28  and  C21_29 
REMARK    9  A    between atoms: C21_29  and  C22_30 
REMARK   10  A    between atoms: C22_30  and  O6_32 
REMARK   11  A    between atoms: C23_33  and  C24_34 
REMARK   12  A    between atoms: C24_34  and  C25_35 
REMARK   13  A    between atoms: C25_35  and  C26_36 
REMARK   14  A    between atoms: C26_36  and  O8_38 
REMARK   15  A    between atoms: C27_39  and  C28_40 
REMARK   16  A    between atoms: C28_40  and  C29_41 
REMARK   17  A    between atoms: C29_41  and  O10_43 
REMARK   18  A    between atoms: C30_44  and  C31_45 
REMARK   19  A    between atoms: C31_45  and  C32_46 
REMARK   20  A    between atoms: C32_46  and  C33_47 
REMARK   21  A    between atoms: C33_47  and  O12_49 
REMARK   22  A    between atoms: C34_50  and  C35_51 
REMARK   23  A    between atoms: C35_51  and  C36_52 
REMARK   24  A    between atoms: C36_52  and  O14_54 
REMARK   25  A    between atoms: C37_55  and  C38_56 
REMARK   26  A    between atoms: C38_56  and  C39_57 
REMARK   27  A    between atoms: C39_57  and  C40_58 
REMARK   28  A    between atoms: C40_58  and  O16_60 
ROOT
HETATM    1  O1  UNL     1     -18.517  10.390  -2.264  1.00  0.00    -0.650 OA
HETATM    2  C1  UNL     1     -18.388   9.645  -1.285  1.00  0.00     0.139 C 
ENDROOT
BRANCH   2   3
HETATM    3  O2  UNL     1     -19.496   9.484  -0.449  1.00  0.00    -0.776 OA
HETATM    4  H1  UNL     1     -19.717  10.136   0.295  1.00  0.00     0.167 HD
ENDBRANCH   2   3
BRANCH   2   5
HETATM    5  C2  UNL     1     -17.135   8.931  -0.973  1.00  0.00     0.115 C 
BRANCH   5   6
HETATM    6  C3  UNL     1     -16.173   9.710  -0.152  1.00  0.00     0.052 C 
BRANCH   6   7
HETATM    7  C4  UNL     1     -15.845   8.987   1.106  1.00  0.00    -0.020 A 
HETATM    8  C5  UNL     1     -16.508   9.023   2.265  1.00  0.00    -0.011 A 
HETATM    9  C8  UNL     1     -15.844   8.170   3.222  1.00  0.00     0.067 A 
HETATM   10  C9  UNL     1     -16.083   7.849   4.576  1.00  0.00     0.062 C 
HETATM   11  N4  UNL     1     -14.792   7.636   2.609  1.00  0.00    -0.248 NA
HETATM   12  C10 UNL     1     -15.236   7.094   5.383  1.00  0.00     0.041 A 
HETATM   13  N1  UNL     1     -13.895   7.029   5.493  1.00  0.00    -0.355 N 
HETATM   14  C37 UNL     1     -15.824   6.149   6.255  1.00  0.00    -0.022 A 
HETATM   15  C11 UNL     1     -13.612   6.074   6.398  1.00  0.00     0.042 A 
HETATM   16  H10 UNL     1     -13.157   7.673   4.958  1.00  0.00     0.166 HD
HETATM   17  C12 UNL     1     -12.415   5.543   6.882  1.00  0.00     0.062 C 
HETATM   18  C34 UNL     1     -14.816   5.517   6.883  1.00  0.00    -0.013 A 
HETATM   19  C13 UNL     1     -11.287   5.242   6.095  1.00  0.00     0.066 A 
HETATM   20  N2  UNL     1     -11.344   5.467   4.774  1.00  0.00    -0.248 NA
HETATM   21  C30 UNL     1      -9.976   4.720   6.391  1.00  0.00    -0.020 A 
HETATM   22  C14 UNL     1     -10.171   5.128   4.209  1.00  0.00     0.067 A 
HETATM   23  C15 UNL     1     -10.014   5.292   2.827  1.00  0.00     0.062 C 
HETATM   24  C27 UNL     1      -9.273   4.640   5.250  1.00  0.00    -0.011 A 
HETATM   25  C16 UNL     1     -10.827   6.055   1.960  1.00  0.00     0.041 A 
HETATM   26  N3  UNL     1     -12.155   6.221   1.943  1.00  0.00    -0.355 N 
HETATM   27  C23 UNL     1     -10.212   6.837   0.951  1.00  0.00    -0.022 A 
HETATM   28  C17 UNL     1     -12.444   7.086   0.964  1.00  0.00     0.042 A 
HETATM   29  H13 UNL     1     -12.900   5.706   2.606  1.00  0.00     0.166 HD
HETATM   30  C18 UNL     1     -13.675   7.614   0.530  1.00  0.00     0.062 C 
HETATM   31  C20 UNL     1     -11.252   7.491   0.327  1.00  0.00    -0.013 A 
HETATM   32  C19 UNL     1     -14.725   8.081   1.331  1.00  0.00     0.066 A 
BRANCH   8  33
HETATM   33  C6  UNL     1     -17.740   9.826   2.496  1.00  0.00     0.151 C 
BRANCH  33  34
HETATM   34  C7  UNL     1     -18.926   8.995   2.806  1.00  0.00     0.143 C 
HETATM   35  O3  UNL     1     -19.613   9.262   3.812  1.00  0.00    -0.650 OA
BRANCH  34  36
HETATM   36  O4  UNL     1     -19.229   7.948   1.964  1.00  0.00    -0.776 OA
HETATM   37  H8  UNL     1     -18.463   7.418   1.550  1.00  0.00     0.167 HD
ENDBRANCH  34  36
ENDBRANCH  33  34
ENDBRANCH   8  33
BRANCH  31  38
HETATM   38  C21 UNL     1     -11.105   8.481  -0.811  1.00  0.00     0.151 C 
BRANCH  38  39
HETATM   39  C22 UNL     1     -10.815   9.800  -0.201  1.00  0.00     0.143 C 
HETATM   40  O5  UNL     1      -9.656  10.263  -0.273  1.00  0.00    -0.650 OA
BRANCH  39  41
HETATM   41  O6  UNL     1     -11.774  10.559   0.452  1.00  0.00    -0.776 OA
HETATM   42  H17 UNL     1     -12.682  10.159   0.718  1.00  0.00     0.167 HD
ENDBRANCH  39  41
ENDBRANCH  38  39
ENDBRANCH  31  38
BRANCH  27  43
HETATM   43  C24 UNL     1      -8.776   6.974   0.588  1.00  0.00     0.052 C 
BRANCH  43  44
HETATM   44  C25 UNL     1      -8.421   6.174  -0.592  1.00  0.00     0.115 C 
BRANCH  44  45
HETATM   45  C26 UNL     1      -7.568   4.999  -0.435  1.00  0.00     0.139 C 
HETATM   46  O7  UNL     1      -6.390   4.901  -0.105  1.00  0.00    -0.650 OA
BRANCH  45  47
HETATM   47  O8  UNL     1      -8.216   3.763  -0.713  1.00  0.00    -0.776 OA
HETATM   48  H22 UNL     1      -8.807   3.630  -1.496  1.00  0.00     0.167 HD
ENDBRANCH  45  47
ENDBRANCH  44  45
ENDBRANCH  43  44
ENDBRANCH  27  43
BRANCH  24  49
HETATM   49  C28 UNL     1      -7.866   4.163   5.066  1.00  0.00     0.151 C 
BRANCH  49  50
HETATM   50  C29 UNL     1      -7.785   2.688   5.204  1.00  0.00     0.143 C 
HETATM   51  O9  UNL     1      -6.972   2.207   6.025  1.00  0.00    -0.650 OA
BRANCH  50  52
HETATM   52  O10 UNL     1      -8.565   1.814   4.468  1.00  0.00    -0.776 OA
HETATM   53  H25 UNL     1      -8.941   2.070   3.545  1.00  0.00     0.167 HD
ENDBRANCH  50  52
ENDBRANCH  49  50
ENDBRANCH  24  49
BRANCH  21  54
HETATM   54  C31 UNL     1      -9.446   4.340   7.731  1.00  0.00     0.052 C 
BRANCH  54  55
HETATM   55  C32 UNL     1      -9.852   2.989   8.199  1.00  0.00     0.115 C 
BRANCH  55  56
HETATM   56  C33 UNL     1      -8.658   2.416   8.921  1.00  0.00     0.139 C 
HETATM   57  O11 UNL     1      -8.768   1.396   9.645  1.00  0.00    -0.650 OA
BRANCH  56  58
HETATM   58  O12 UNL     1      -7.397   2.989   8.816  1.00  0.00    -0.776 OA
HETATM   59  H30 UNL     1      -6.680   2.589   9.428  1.00  0.00     0.167 HD
ENDBRANCH  56  58
ENDBRANCH  55  56
ENDBRANCH  54  55
ENDBRANCH  21  54
BRANCH  18  60
HETATM   60  C35 UNL     1     -15.034   4.447   7.911  1.00  0.00     0.151 C 
BRANCH  60  61
HETATM   61  C36 UNL     1     -14.845   5.055   9.230  1.00  0.00     0.143 C 
HETATM   62  O13 UNL     1     -15.673   5.913   9.648  1.00  0.00    -0.650 OA
BRANCH  61  63
HETATM   63  O14 UNL     1     -13.782   4.730  10.062  1.00  0.00    -0.776 OA
HETATM   64  H33 UNL     1     -13.984   4.385  10.986  1.00  0.00     0.167 HD
ENDBRANCH  61  63
ENDBRANCH  60  61
ENDBRANCH  18  60
BRANCH  14  65
HETATM   65  C38 UNL     1     -17.273   5.854   6.513  1.00  0.00     0.052 C 
BRANCH  65  66
HETATM   66  C39 UNL     1     -17.748   4.804   5.552  1.00  0.00     0.115 C 
BRANCH  66  67
HETATM   67  C40 UNL     1     -18.468   5.494   4.417  1.00  0.00     0.139 C 
HETATM   68  O15 UNL     1     -18.124   5.284   3.224  1.00  0.00    -0.650 OA
BRANCH  67  69
HETATM   69  O16 UNL     1     -19.501   6.353   4.668  1.00  0.00    -0.776 OA
HETATM   70  H38 UNL     1     -20.164   6.607   3.955  1.00  0.00     0.167 HD
ENDBRANCH  67  69
ENDBRANCH  66  67
ENDBRANCH  65  66
ENDBRANCH  14  65
ENDBRANCH   6   7
ENDBRANCH   5   6
ENDBRANCH   2   5
TORSDOF 28
ENDMDL
MODEL 10
REMARK VINA RESULT:      -7.1     17.309     19.876
REMARK  28 active torsions:
REMARK  status: ('A' for Active; 'I' for Inactive)
REMARK    1  A    between atoms: C1_2  and  O2_3 
REMARK    2  A    between atoms: C1_2  and  C2_4 
REMARK    3  A    between atoms: C2_4  and  C3_5 
REMARK    4  A    between atoms: C3_5  and  C4_6 
REMARK    5  A    between atoms: C5_7  and  C6_8 
REMARK    6  A    between atoms: C6_8  and  C7_9 
REMARK    7  A    between atoms: C7_9  and  O4_11 
REMARK    8  A    between atoms: C20_28  and  C21_29 
REMARK    9  A    between atoms: C21_29  and  C22_30 
REMARK   10  A    between atoms: C22_30  and  O6_32 
REMARK   11  A    between atoms: C23_33  and  C24_34 
REMARK   12  A    between atoms: C24_34  and  C25_35 
REMARK   13  A    between atoms: C25_35  and  C26_36 
REMARK   14  A    between atoms: C26_36  and  O8_38 
REMARK   15  A    between atoms: C27_39  and  C28_40 
REMARK   16  A    between atoms: C28_40  and  C29_41 
REMARK   17  A    between atoms: C29_41  and  O10_43 
REMARK   18  A    between atoms: C30_44  and  C31_45 
REMARK   19  A    between atoms: C31_45  and  C32_46 
REMARK   20  A    between atoms: C32_46  and  C33_47 
REMARK   21  A    between atoms: C33_47  and  O12_49 
REMARK   22  A    between atoms: C34_50  and  C35_51 
REMARK   23  A    between atoms: C35_51  and  C36_52 
REMARK   24  A    between atoms: C36_52  and  O14_54 
REMARK   25  A    between atoms: C37_55  and  C38_56 
REMARK   26  A    between atoms: C38_56  and  C39_57 
REMARK   27  A    between atoms: C39_57  and  C40_58 
REMARK   28  A    between atoms: C40_58  and  O16_60 
ROOT
HETATM    1  O1  UNL     1     -17.314   7.256  10.845  1.00  0.00    -0.650 OA
HETATM    2  C1  UNL     1     -17.260   6.041  10.619  1.00  0.00     0.139 C 
ENDROOT
BRANCH   2   3
HETATM    3  O2  UNL     1     -16.164   5.341  11.128  1.00  0.00    -0.776 OA
HETATM    4  H1  UNL     1     -16.252   4.427  11.559  1.00  0.00     0.167 HD
ENDBRANCH   2   3
BRANCH   2   5
HETATM    5  C2  UNL     1     -18.291   5.316   9.851  1.00  0.00     0.115 C 
BRANCH   5   6
HETATM    6  C3  UNL     1     -17.761   4.239   8.977  1.00  0.00     0.052 C 
BRANCH   6   7
HETATM    7  C4  UNL     1     -17.338   4.786   7.660  1.00  0.00    -0.020 A 
HETATM    8  C5  UNL     1     -18.099   5.009   6.586  1.00  0.00    -0.011 A 
HETATM    9  C8  UNL     1     -17.282   5.548   5.525  1.00  0.00     0.067 A 
HETATM   10  C9  UNL     1     -17.544   5.940   4.194  1.00  0.00     0.062 C 
HETATM   11  N4  UNL     1     -16.041   5.638   5.991  1.00  0.00    -0.248 NA
HETATM   12  C10 UNL     1     -16.577   6.318   3.264  1.00  0.00     0.041 A 
HETATM   13  N1  UNL     1     -15.336   5.866   3.001  1.00  0.00    -0.355 N 
HETATM   14  C37 UNL     1     -16.864   7.419   2.425  1.00  0.00    -0.022 A 
HETATM   15  C11 UNL     1     -14.824   6.644   2.030  1.00  0.00     0.042 A 
HETATM   16  H10 UNL     1     -14.838   4.988   3.477  1.00  0.00     0.166 HD
HETATM   17  C12 UNL     1     -13.583   6.681   1.392  1.00  0.00     0.062 C 
HETATM   18  C34 UNL     1     -15.776   7.620   1.660  1.00  0.00    -0.013 A 
HETATM   19  C13 UNL     1     -12.339   6.526   2.032  1.00  0.00     0.066 A 
HETATM   20  N2  UNL     1     -12.317   6.335   3.359  1.00  0.00    -0.248 NA
HETATM   21  C30 UNL     1     -10.974   6.509   1.568  1.00  0.00    -0.020 A 
HETATM   22  C14 UNL     1     -11.044   6.199   3.773  1.00  0.00     0.067 A 
HETATM   23  C15 UNL     1     -10.795   5.983   5.135  1.00  0.00     0.062 C 
HETATM   24  C27 UNL     1     -10.161   6.311   2.618  1.00  0.00    -0.011 A 
HETATM   25  C16 UNL     1     -11.725   5.584   6.120  1.00  0.00     0.041 A 
HETATM   26  N3  UNL     1     -13.004   5.938   6.294  1.00  0.00    -0.355 N 
HETATM   27  C23 UNL     1     -11.336   4.624   7.086  1.00  0.00    -0.022 A 
HETATM   28  C17 UNL     1     -13.480   5.245   7.336  1.00  0.00     0.042 A 
HETATM   29  H13 UNL     1     -13.573   6.700   5.697  1.00  0.00     0.166 HD
HETATM   30  C18 UNL     1     -14.757   5.226   7.928  1.00  0.00     0.062 C 
HETATM   31  C20 UNL     1     -12.463   4.414   7.850  1.00  0.00    -0.013 A 
HETATM   32  C19 UNL     1     -15.994   5.197   7.272  1.00  0.00     0.066 A 
BRANCH   8  33
HETATM   33  C6  UNL     1     -19.562   4.738   6.531  1.00  0.00     0.151 C 
BRANCH  33  34
HETATM   34  C7  UNL     1     -19.884   3.293   6.469  1.00  0.00     0.143 C 
HETATM   35  O3  UNL     1     -19.022   2.493   6.055  1.00  0.00    -0.650 OA
BRANCH  34  36
HETATM   36  O4  UNL     1     -21.135   2.884   6.874  1.00  0.00    -0.776 OA
HETATM   37  H8  UNL     1     -21.949   3.225   6.363  1.00  0.00     0.167 HD
ENDBRANCH  34  36
ENDBRANCH  33  34
ENDBRANCH   8  33
BRANCH  31  38
HETATM   38  C21 UNL     1     -12.565   3.439   9.006  1.00  0.00     0.151 C 
BRANCH  38  39
HETATM   39  C22 UNL     1     -12.242   4.194  10.239  1.00  0.00     0.143 C 
HETATM   40  O5  UNL     1     -13.174   4.661  10.930  1.00  0.00    -0.650 OA
BRANCH  39  41
HETATM   41  O6  UNL     1     -10.944   4.414  10.674  1.00  0.00    -0.776 OA
HETATM   42  H17 UNL     1     -10.487   3.775  11.337  1.00  0.00     0.167 HD
ENDBRANCH  39  41
ENDBRANCH  38  39
ENDBRANCH  31  38
BRANCH  27  43
HETATM   43  C24 UNL     1     -10.026   3.948   7.290  1.00  0.00     0.052 C 
BRANCH  43  44
HETATM   44  C25 UNL     1     -10.022   2.574   6.767  1.00  0.00     0.115 C 
BRANCH  44  45
HETATM   45  C26 UNL     1      -9.451   2.308   5.450  1.00  0.00     0.139 C 
HETATM   46  O7  UNL     1      -9.974   2.269   4.341  1.00  0.00    -0.650 OA
BRANCH  45  47
HETATM   47  O8  UNL     1      -8.051   2.049   5.461  1.00  0.00    -0.776 OA
HETATM   48  H22 UNL     1      -7.674   1.136   5.525  1.00  0.00     0.167 HD
ENDBRANCH  45  47
ENDBRANCH  44  45
ENDBRANCH  43  44
ENDBRANCH  27  43
BRANCH  24  49
HETATM   49  C28 UNL     1      -8.667   6.215   2.621  1.00  0.00     0.151 C 
BRANCH  49  50
HETATM   50  C29 UNL     1      -8.227   4.815   2.844  1.00  0.00     0.143 C 
HETATM   51  O9  UNL     1      -7.404   4.584   3.759  1.00  0.00    -0.650 OA
BRANCH  50  52
HETATM   52  O10 UNL     1      -8.683   3.749   2.090  1.00  0.00    -0.776 OA
HETATM   53  H25 UNL     1      -9.416   3.116   2.436  1.00  0.00     0.167 HD
ENDBRANCH  50  52
ENDBRANCH  49  50
ENDBRANCH  24  49
BRANCH  21  54
HETATM   54  C31 UNL     1     -10.505   6.662   0.161  1.00  0.00     0.052 C 
BRANCH  54  55
HETATM   55  C32 UNL     1     -10.104   8.044  -0.212  1.00  0.00     0.115 C 
BRANCH  55  56
HETATM   56  C33 UNL     1     -11.290   8.649  -0.923  1.00  0.00     0.139 C 
HETATM   57  O11 UNL     1     -11.493   8.428  -2.143  1.00  0.00    -0.650 OA
BRANCH  56  58
HETATM   58  O12 UNL     1     -12.198   9.467  -0.264  1.00  0.00    -0.776 OA
HETATM   59  H30 UNL     1     -11.788  10.156   0.372  1.00  0.00     0.167 HD
ENDBRANCH  56  58
ENDBRANCH  55  56
ENDBRANCH  54  55
ENDBRANCH  21  54
BRANCH  18  60
HETATM   60  C35 UNL     1     -15.695   8.696   0.618  1.00  0.00     0.151 C 
BRANCH  60  61
HETATM   61  C36 UNL     1     -15.219   9.915   1.278  1.00  0.00     0.143 C 
HETATM   62  O13 UNL     1     -14.257   9.850   2.094  1.00  0.00    -0.650 OA
BRANCH  61  63
HETATM   63  O14 UNL     1     -15.782  11.163   1.046  1.00  0.00    -0.776 OA
HETATM   64  H33 UNL     1     -15.421  11.719   0.289  1.00  0.00     0.167 HD
ENDBRANCH  61  63
ENDBRANCH  60  61
ENDBRANCH  18  60
BRANCH  14  65
HETATM   65  C38 UNL     1     -18.113   8.245   2.319  1.00  0.00     0.052 C 
BRANCH  65  66
HETATM   66  C39 UNL     1     -18.104   9.302   3.384  1.00  0.00     0.115 C 
BRANCH  66  67
HETATM   67  C40 UNL     1     -18.717  10.557   2.809  1.00  0.00     0.139 C 
HETATM   68  O15 UNL     1     -19.260  11.404   3.565  1.00  0.00    -0.650 OA
BRANCH  67  69
HETATM   69  O16 UNL     1     -18.692  10.789   1.462  1.00  0.00    -0.776 OA
HETATM   70  H38 UNL     1     -18.981  10.090   0.798  1.00  0.00     0.167 HD
ENDBRANCH  67  69
ENDBRANCH  66  67
ENDBRANCH  65  66
ENDBRANCH  14  65
ENDBRANCH   6   7
ENDBRANCH   5   6
ENDBRANCH   2   5
TORSDOF 28
ENDMDL
MODEL 11
REMARK VINA RESULT:      -7.0     18.563     21.201
REMARK  28 active torsions:
REMARK  status: ('A' for Active; 'I' for Inactive)
REMARK    1  A    between atoms: C1_2  and  O2_3 
REMARK    2  A    between atoms: C1_2  and  C2_4 
REMARK    3  A    between atoms: C2_4  and  C3_5 
REMARK    4  A    between atoms: C3_5  and  C4_6 
REMARK    5  A    between atoms: C5_7  and  C6_8 
REMARK    6  A    between atoms: C6_8  and  C7_9 
REMARK    7  A    between atoms: C7_9  and  O4_11 
REMARK    8  A    between atoms: C20_28  and  C21_29 
REMARK    9  A    between atoms: C21_29  and  C22_30 
REMARK   10  A    between atoms: C22_30  and  O6_32 
REMARK   11  A    between atoms: C23_33  and  C24_34 
REMARK   12  A    between atoms: C24_34  and  C25_35 
REMARK   13  A    between atoms: C25_35  and  C26_36 
REMARK   14  A    between atoms: C26_36  and  O8_38 
REMARK   15  A    between atoms: C27_39  and  C28_40 
REMARK   16  A    between atoms: C28_40  and  C29_41 
REMARK   17  A    between atoms: C29_41  and  O10_43 
REMARK   18  A    between atoms: C30_44  and  C31_45 
REMARK   19  A    between atoms: C31_45  and  C32_46 
REMARK   20  A    between atoms: C32_46  and  C33_47 
REMARK   21  A    between atoms: C33_47  and  O12_49 
REMARK   22  A    between atoms: C34_50  and  C35_51 
REMARK   23  A    between atoms: C35_51  and  C36_52 
REMARK   24  A    between atoms: C36_52  and  O14_54 
REMARK   25  A    between atoms: C37_55  and  C38_56 
REMARK   26  A    between atoms: C38_56  and  C39_57 
REMARK   27  A    between atoms: C39_57  and  C40_58 
REMARK   28  A    between atoms: C40_58  and  O16_60 
ROOT
HETATM    1  O1  UNL     1     -16.825   1.982   6.301  1.00  0.00    -0.650 OA
HETATM    2  C1  UNL     1     -17.550   2.892   6.721  1.00  0.00     0.139 C 
ENDROOT
BRANCH   2   3
HETATM    3  O2  UNL     1     -18.888   2.886   6.320  1.00  0.00    -0.776 OA
HETATM    4  H1  UNL     1     -19.458   3.725   6.307  1.00  0.00     0.167 HD
ENDBRANCH   2   3
BRANCH   2   5
HETATM    5  C2  UNL     1     -17.065   3.962   7.615  1.00  0.00     0.115 C 
BRANCH   5   6
HETATM    6  C3  UNL     1     -17.349   5.338   7.135  1.00  0.00     0.052 C 
BRANCH   6   7
HETATM    7  C4  UNL     1     -16.426   5.714   6.031  1.00  0.00    -0.020 A 
HETATM    8  C5  UNL     1     -16.746   6.061   4.781  1.00  0.00    -0.011 A 
HETATM    9  C8  UNL     1     -15.540   6.349   4.042  1.00  0.00     0.067 A 
HETATM   10  C9  UNL     1     -15.280   6.733   2.708  1.00  0.00     0.062 C 
HETATM   11  N4  UNL     1     -14.517   6.168   4.871  1.00  0.00    -0.248 NA
HETATM   12  C10 UNL     1     -14.015   6.835   2.135  1.00  0.00     0.041 A 
HETATM   13  N1  UNL     1     -12.895   6.096   2.254  1.00  0.00    -0.355 N 
HETATM   14  C37 UNL     1     -13.763   7.934   1.282  1.00  0.00    -0.022 A 
HETATM   15  C11 UNL     1     -11.941   6.691   1.514  1.00  0.00     0.042 A 
HETATM   16  H10 UNL     1     -12.787   5.148   2.833  1.00  0.00     0.166 HD
HETATM   17  C12 UNL     1     -10.592   6.410   1.291  1.00  0.00     0.062 C 
HETATM   18  C34 UNL     1     -12.477   7.844   0.898  1.00  0.00    -0.013 A 
HETATM   19  C13 UNL     1      -9.678   5.999   2.280  1.00  0.00     0.066 A 
HETATM   20  N2  UNL     1     -10.110   5.867   3.542  1.00  0.00    -0.248 NA
HETATM   21  C30 UNL     1      -8.280   5.646   2.259  1.00  0.00    -0.020 A 
HETATM   22  C14 UNL     1      -9.096   5.457   4.324  1.00  0.00     0.067 A 
HETATM   23  C15 UNL     1      -9.335   5.248   5.689  1.00  0.00     0.062 C 
HETATM   24  C27 UNL     1      -7.900   5.311   3.503  1.00  0.00    -0.011 A 
HETATM   25  C16 UNL     1     -10.589   5.120   6.326  1.00  0.00     0.041 A 
HETATM   26  N3  UNL     1     -11.739   5.769   6.107  1.00  0.00    -0.355 N 
HETATM   27  C23 UNL     1     -10.752   4.139   7.334  1.00  0.00    -0.022 A 
HETATM   28  C17 UNL     1     -12.661   5.251   6.929  1.00  0.00     0.042 A 
HETATM   29  H13 UNL     1     -11.902   6.615   5.388  1.00  0.00     0.166 HD
HETATM   30  C18 UNL     1     -14.025   5.554   7.097  1.00  0.00     0.062 C 
HETATM   31  C20 UNL     1     -12.075   4.230   7.706  1.00  0.00    -0.013 A 
HETATM   32  C19 UNL     1     -14.971   5.785   6.090  1.00  0.00     0.066 A 
BRANCH   8  33
HETATM   33  C6  UNL     1     -18.142   6.135   4.268  1.00  0.00     0.151 C 
BRANCH  33  34
HETATM   34  C7  UNL     1     -18.434   5.118   3.231  1.00  0.00     0.143 C 
HETATM   35  O3  UNL     1     -18.610   3.932   3.571  1.00  0.00    -0.650 OA
BRANCH  34  36
HETATM   36  O4  UNL     1     -18.502   5.526   1.917  1.00  0.00    -0.776 OA
HETATM   37  H8  UNL     1     -17.914   5.056   1.230  1.00  0.00     0.167 HD
ENDBRANCH  34  36
ENDBRANCH  33  34
ENDBRANCH   8  33
BRANCH  31  38
HETATM   38  C21 UNL     1     -12.753   3.356   8.743  1.00  0.00     0.151 C 
BRANCH  38  39
HETATM   39  C22 UNL     1     -12.632   4.056  10.043  1.00  0.00     0.143 C 
HETATM   40  O5  UNL     1     -13.608   4.702  10.482  1.00  0.00    -0.650 OA
BRANCH  39  41
HETATM   41  O6  UNL     1     -11.478   4.030  10.812  1.00  0.00    -0.776 OA
HETATM   42  H17 UNL     1     -10.756   3.312  10.670  1.00  0.00     0.167 HD
ENDBRANCH  39  41
ENDBRANCH  38  39
ENDBRANCH  31  38
BRANCH  27  43
HETATM   43  C24 UNL     1      -9.765   3.187   7.911  1.00  0.00     0.052 C 
BRANCH  43  44
HETATM   44  C25 UNL     1      -9.869   1.848   7.315  1.00  0.00     0.115 C 
BRANCH  44  45
HETATM   45  C26 UNL     1      -9.480   1.650   5.921  1.00  0.00     0.139 C 
HETATM   46  O7  UNL     1     -10.158   1.432   4.923  1.00  0.00    -0.650 OA
BRANCH  45  47
HETATM   47  O8  UNL     1      -8.078   1.720   5.689  1.00  0.00    -0.776 OA
HETATM   48  H22 UNL     1      -7.662   2.408   5.111  1.00  0.00     0.167 HD
ENDBRANCH  45  47
ENDBRANCH  44  45
ENDBRANCH  43  44
ENDBRANCH  27  43
BRANCH  24  49
HETATM   49  C28 UNL     1      -6.545   4.870   3.964  1.00  0.00     0.151 C 
BRANCH  49  50
HETATM   50  C29 UNL     1      -5.798   6.001   4.568  1.00  0.00     0.143 C 
HETATM   51  O9  UNL     1      -5.000   6.645   3.850  1.00  0.00    -0.650 OA
BRANCH  50  52
HETATM   52  O10 UNL     1      -5.938   6.381   5.891  1.00  0.00    -0.776 OA
HETATM   53  H25 UNL     1      -5.463   5.878   6.652  1.00  0.00     0.167 HD
ENDBRANCH  50  52
ENDBRANCH  49  50
ENDBRANCH  24  49
BRANCH  21  54
HETATM   54  C31 UNL     1      -7.380   5.624   1.072  1.00  0.00     0.052 C 
BRANCH  54  55
HETATM   55  C32 UNL     1      -6.720   6.922   0.771  1.00  0.00     0.115 C 
BRANCH  55  56
HETATM   56  C33 UNL     1      -7.342   7.423  -0.509  1.00  0.00     0.139 C 
HETATM   57  O11 UNL     1      -7.472   8.654  -0.726  1.00  0.00    -0.650 OA
BRANCH  56  58
HETATM   58  O12 UNL     1      -7.792   6.552  -1.493  1.00  0.00    -0.776 OA
HETATM   59  H30 UNL     1      -8.344   6.982  -2.241  1.00  0.00     0.167 HD
ENDBRANCH  56  58
ENDBRANCH  55  56
ENDBRANCH  54  55
ENDBRANCH  21  54
BRANCH  18  60
HETATM   60  C35 UNL     1     -11.830   8.825  -0.034  1.00  0.00     0.151 C 
BRANCH  60  61
HETATM   61  C36 UNL     1     -11.324   9.936   0.776  1.00  0.00     0.143 C 
HETATM   62  O13 UNL     1     -11.483  11.124   0.378  1.00  0.00    -0.650 OA
BRANCH  61  63
HETATM   63  O14 UNL     1     -10.665   9.746   1.984  1.00  0.00    -0.776 OA
HETATM   64  H33 UNL     1      -9.809   9.218   1.987  1.00  0.00     0.167 HD
ENDBRANCH  61  63
ENDBRANCH  60  61
ENDBRANCH  18  60
BRANCH  14  65
HETATM   65  C38 UNL     1     -14.690   9.022   0.822  1.00  0.00     0.052 C 
BRANCH  65  66
HETATM   66  C39 UNL     1     -15.432   8.562  -0.398  1.00  0.00     0.115 C 
BRANCH  66  67
HETATM   67  C40 UNL     1     -16.807   9.189  -0.379  1.00  0.00     0.139 C 
HETATM   68  O15 UNL     1     -17.420   9.343   0.709  1.00  0.00    -0.650 OA
BRANCH  67  69
HETATM   69  O16 UNL     1     -17.402   9.595  -1.541  1.00  0.00    -0.776 OA
HETATM   70  H38 UNL     1     -17.821  10.506  -1.631  1.00  0.00     0.167 HD
ENDBRANCH  67  69
ENDBRANCH  66  67
ENDBRANCH  65  66
ENDBRANCH  14  65
ENDBRANCH   6   7
ENDBRANCH   5   6
ENDBRANCH   2   5
TORSDOF 28
ENDMDL
MODEL 12
REMARK VINA RESULT:      -7.0     17.974     20.585
REMARK  28 active torsions:
REMARK  status: ('A' for Active; 'I' for Inactive)
REMARK    1  A    between atoms: C1_2  and  O2_3 
REMARK    2  A    between atoms: C1_2  and  C2_4 
REMARK    3  A    between atoms: C2_4  and  C3_5 
REMARK    4  A    between atoms: C3_5  and  C4_6 
REMARK    5  A    between atoms: C5_7  and  C6_8 
REMARK    6  A    between atoms: C6_8  and  C7_9 
REMARK    7  A    between atoms: C7_9  and  O4_11 
REMARK    8  A    between atoms: C20_28  and  C21_29 
REMARK    9  A    between atoms: C21_29  and  C22_30 
REMARK   10  A    between atoms: C22_30  and  O6_32 
REMARK   11  A    between atoms: C23_33  and  C24_34 
REMARK   12  A    between atoms: C24_34  and  C25_35 
REMARK   13  A    between atoms: C25_35  and  C26_36 
REMARK   14  A    between atoms: C26_36  and  O8_38 
REMARK   15  A    between atoms: C27_39  and  C28_40 
REMARK   16  A    between atoms: C28_40  and  C29_41 
REMARK   17  A    between atoms: C29_41  and  O10_43 
REMARK   18  A    between atoms: C30_44  and  C31_45 
REMARK   19  A    between atoms: C31_45  and  C32_46 
REMARK   20  A    between atoms: C32_46  and  C33_47 
REMARK   21  A    between atoms: C33_47  and  O12_49 
REMARK   22  A    between atoms: C34_50  and  C35_51 
REMARK   23  A    between atoms: C35_51  and  C36_52 
REMARK   24  A    between atoms: C36_52  and  O14_54 
REMARK   25  A    between atoms: C37_55  and  C38_56 
REMARK   26  A    between atoms: C38_56  and  C39_57 
REMARK   27  A    between atoms: C39_57  and  C40_58 
REMARK   28  A    between atoms: C40_58  and  O16_60 
ROOT
HETATM    1  O1  UNL     1     -17.076   7.283  10.777  1.00  0.00    -0.650 OA
HETATM    2  C1  UNL     1     -17.401   6.135  10.449  1.00  0.00     0.139 C 
ENDROOT
BRANCH   2   3
HETATM    3  O2  UNL     1     -18.763   5.877  10.279  1.00  0.00    -0.776 OA
HETATM    4  H1  UNL     1     -19.134   4.937  10.196  1.00  0.00     0.167 HD
ENDBRANCH   2   3
BRANCH   2   5
HETATM    5  C2  UNL     1     -16.424   5.049  10.235  1.00  0.00     0.115 C 
BRANCH   5   6
HETATM    6  C3  UNL     1     -16.749   4.146   9.102  1.00  0.00     0.052 C 
BRANCH   6   7
HETATM    7  C4  UNL     1     -16.378   4.772   7.804  1.00  0.00    -0.020 A 
HETATM    8  C5  UNL     1     -17.196   5.170   6.826  1.00  0.00    -0.011 A 
HETATM    9  C8  UNL     1     -16.415   5.724   5.746  1.00  0.00     0.067 A 
HETATM   10  C9  UNL     1     -16.741   6.265   4.483  1.00  0.00     0.062 C 
HETATM   11  N4  UNL     1     -15.138   5.647   6.104  1.00  0.00    -0.248 NA
HETATM   12  C10 UNL     1     -15.818   6.632   3.506  1.00  0.00     0.041 A 
HETATM   13  N1  UNL     1     -14.657   6.088   3.094  1.00  0.00    -0.355 N 
HETATM   14  C37 UNL     1     -16.053   7.831   2.794  1.00  0.00    -0.022 A 
HETATM   15  C11 UNL     1     -14.145   6.901   2.151  1.00  0.00     0.042 A 
HETATM   16  H10 UNL     1     -14.218   5.124   3.445  1.00  0.00     0.166 HD
HETATM   17  C12 UNL     1     -12.963   6.875   1.409  1.00  0.00     0.062 C 
HETATM   18  C34 UNL     1     -15.016   7.996   1.954  1.00  0.00    -0.013 A 
HETATM   19  C13 UNL     1     -11.695   6.539   1.919  1.00  0.00     0.066 A 
HETATM   20  N2  UNL     1     -11.586   6.222   3.217  1.00  0.00    -0.248 NA
HETATM   21  C30 UNL     1     -10.382   6.433   1.333  1.00  0.00    -0.020 A 
HETATM   22  C14 UNL     1     -10.306   5.922   3.501  1.00  0.00     0.067 A 
HETATM   23  C15 UNL     1      -9.972   5.554   4.811  1.00  0.00     0.062 C 
HETATM   24  C27 UNL     1      -9.512   6.057   2.285  1.00  0.00    -0.011 A 
HETATM   25  C16 UNL     1     -10.856   5.158   5.838  1.00  0.00     0.041 A 
HETATM   26  N3  UNL     1     -12.072   5.617   6.157  1.00  0.00    -0.355 N 
HETATM   27  C23 UNL     1     -10.493   4.076   6.678  1.00  0.00    -0.022 A 
HETATM   28  C17 UNL     1     -12.532   4.879   7.173  1.00  0.00     0.042 A 
HETATM   29  H13 UNL     1     -12.603   6.485   5.681  1.00  0.00     0.166 HD
HETATM   30  C18 UNL     1     -13.752   4.928   7.875  1.00  0.00     0.062 C 
HETATM   31  C20 UNL     1     -11.571   3.907   7.521  1.00  0.00    -0.013 A 
HETATM   32  C19 UNL     1     -15.034   5.084   7.333  1.00  0.00     0.066 A 
BRANCH   8  33
HETATM   33  C6  UNL     1     -18.679   5.050   6.880  1.00  0.00     0.151 C 
BRANCH  33  34
HETATM   34  C7  UNL     1     -19.190   3.838   6.199  1.00  0.00     0.143 C 
HETATM   35  O3  UNL     1     -19.326   3.845   4.960  1.00  0.00    -0.650 OA
BRANCH  34  36
HETATM   36  O4  UNL     1     -19.499   2.737   6.968  1.00  0.00    -0.776 OA
HETATM   37  H8  UNL     1     -19.561   2.851   7.979  1.00  0.00     0.167 HD
ENDBRANCH  34  36
ENDBRANCH  33  34
ENDBRANCH   8  33
BRANCH  31  38
HETATM   38  C21 UNL     1     -11.682   2.841   8.593  1.00  0.00     0.151 C 
BRANCH  38  39
HETATM   39  C22 UNL     1     -10.969   3.352   9.786  1.00  0.00     0.143 C 
HETATM   40  O5  UNL     1      -9.927   2.776  10.167  1.00  0.00    -0.650 OA
BRANCH  39  41
HETATM   41  O6  UNL     1     -11.400   4.452  10.512  1.00  0.00    -0.776 OA
HETATM   42  H17 UNL     1     -11.026   4.655  11.448  1.00  0.00     0.167 HD
ENDBRANCH  39  41
ENDBRANCH  38  39
ENDBRANCH  31  38
BRANCH  27  43
HETATM   43  C24 UNL     1      -9.251   3.259   6.704  1.00  0.00     0.052 C 
BRANCH  43  44
HETATM   44  C25 UNL     1      -9.464   1.905   6.172  1.00  0.00     0.115 C 
BRANCH  44  45
HETATM   45  C26 UNL     1      -9.619   1.715   4.733  1.00  0.00     0.139 C 
HETATM   46  O7  UNL     1     -10.358   0.971   4.097  1.00  0.00    -0.650 OA
BRANCH  45  47
HETATM   47  O8  UNL     1      -8.765   2.531   3.939  1.00  0.00    -0.776 OA
HETATM   48  H22 UNL     1      -8.686   3.510   4.067  1.00  0.00     0.167 HD
ENDBRANCH  45  47
ENDBRANCH  44  45
ENDBRANCH  43  44
ENDBRANCH  27  43
BRANCH  24  49
HETATM   49  C28 UNL     1      -8.042   5.814   2.145  1.00  0.00     0.151 C 
BRANCH  49  50
HETATM   50  C29 UNL     1      -7.776   4.699   1.203  1.00  0.00     0.143 C 
HETATM   51  O9  UNL     1      -8.482   3.667   1.280  1.00  0.00    -0.650 OA
BRANCH  50  52
HETATM   52  O10 UNL     1      -6.785   4.741   0.239  1.00  0.00    -0.776 OA
HETATM   53  H25 UNL     1      -5.849   5.118   0.442  1.00  0.00     0.167 HD
ENDBRANCH  50  52
ENDBRANCH  49  50
ENDBRANCH  24  49
BRANCH  21  54
HETATM   54  C31 UNL     1     -10.015   6.671  -0.092  1.00  0.00     0.052 C 
BRANCH  54  55
HETATM   55  C32 UNL     1      -9.566   8.056  -0.392  1.00  0.00     0.115 C 
BRANCH  55  56
HETATM   56  C33 UNL     1      -8.208   7.927  -1.038  1.00  0.00     0.139 C 
HETATM   57  O11 UNL     1      -7.378   8.869  -0.992  1.00  0.00    -0.650 OA
BRANCH  56  58
HETATM   58  O12 UNL     1      -7.823   6.772  -1.705  1.00  0.00    -0.776 OA
HETATM   59  H30 UNL     1      -6.813   6.608  -1.754  1.00  0.00     0.167 HD
ENDBRANCH  56  58
ENDBRANCH  55  56
ENDBRANCH  54  55
ENDBRANCH  21  54
BRANCH  18  60
HETATM   60  C35 UNL     1     -14.905   9.153   1.006  1.00  0.00     0.151 C 
BRANCH  60  61
HETATM   61  C36 UNL     1     -13.943  10.099   1.574  1.00  0.00     0.143 C 
HETATM   62  O13 UNL     1     -12.893  10.385   0.932  1.00  0.00    -0.650 OA
BRANCH  61  63
HETATM   63  O14 UNL     1     -14.129  10.713   2.805  1.00  0.00    -0.776 OA
HETATM   64  H33 UNL     1     -13.358  10.736   3.452  1.00  0.00     0.167 HD
ENDBRANCH  61  63
ENDBRANCH  60  61
ENDBRANCH  18  60
BRANCH  14  65
HETATM   65  C38 UNL     1     -17.212   8.782   2.873  1.00  0.00     0.052 C 
BRANCH  65  66
HETATM   66  C39 UNL     1     -18.124   8.556   1.703  1.00  0.00     0.115 C 
BRANCH  66  67
HETATM   67  C40 UNL     1     -19.101   7.463   2.069  1.00  0.00     0.139 C 
HETATM   68  O15 UNL     1     -19.670   7.468   3.192  1.00  0.00    -0.650 OA
BRANCH  67  69
HETATM   69  O16 UNL     1     -19.379   6.455   1.188  1.00  0.00    -0.776 OA
HETATM   70  H38 UNL     1     -19.615   6.641   0.228  1.00  0.00     0.167 HD
ENDBRANCH  67  69
ENDBRANCH  66  67
ENDBRANCH  65  66
ENDBRANCH  14  65
ENDBRANCH   6   7
ENDBRANCH   5   6
ENDBRANCH   2   5
TORSDOF 28
ENDMDL
MODEL 13
REMARK VINA RESULT:      -7.0     17.942     20.938
REMARK  28 active torsions:
REMARK  status: ('A' for Active; 'I' for Inactive)
REMARK    1  A    between atoms: C1_2  and  O2_3 
REMARK    2  A    between atoms: C1_2  and  C2_4 
REMARK    3  A    between atoms: C2_4  and  C3_5 
REMARK    4  A    between atoms: C3_5  and  C4_6 
REMARK    5  A    between atoms: C5_7  and  C6_8 
REMARK    6  A    between atoms: C6_8  and  C7_9 
REMARK    7  A    between atoms: C7_9  and  O4_11 
REMARK    8  A    between atoms: C20_28  and  C21_29 
REMARK    9  A    between atoms: C21_29  and  C22_30 
REMARK   10  A    between atoms: C22_30  and  O6_32 
REMARK   11  A    between atoms: C23_33  and  C24_34 
REMARK   12  A    between atoms: C24_34  and  C25_35 
REMARK   13  A    between atoms: C25_35  and  C26_36 
REMARK   14  A    between atoms: C26_36  and  O8_38 
REMARK   15  A    between atoms: C27_39  and  C28_40 
REMARK   16  A    between atoms: C28_40  and  C29_41 
REMARK   17  A    between atoms: C29_41  and  O10_43 
REMARK   18  A    between atoms: C30_44  and  C31_45 
REMARK   19  A    between atoms: C31_45  and  C32_46 
REMARK   20  A    between atoms: C32_46  and  C33_47 
REMARK   21  A    between atoms: C33_47  and  O12_49 
REMARK   22  A    between atoms: C34_50  and  C35_51 
REMARK   23  A    between atoms: C35_51  and  C36_52 
REMARK   24  A    between atoms: C36_52  and  O14_54 
REMARK   25  A    between atoms: C37_55  and  C38_56 
REMARK   26  A    between atoms: C38_56  and  C39_57 
REMARK   27  A    between atoms: C39_57  and  C40_58 
REMARK   28  A    between atoms: C40_58  and  O16_60 
ROOT
HETATM    1  O1  UNL     1     -18.220   2.047   7.452  1.00  0.00    -0.650 OA
HETATM    2  C1  UNL     1     -19.140   2.842   7.681  1.00  0.00     0.139 C 
ENDROOT
BRANCH   2   3
HETATM    3  O2  UNL     1     -20.151   2.422   8.548  1.00  0.00    -0.776 OA
HETATM    4  H1  UNL     1     -20.220   2.749   9.505  1.00  0.00     0.167 HD
ENDBRANCH   2   3
BRANCH   2   5
HETATM    5  C2  UNL     1     -19.207   4.192   7.087  1.00  0.00     0.115 C 
BRANCH   5   6
HETATM    6  C3  UNL     1     -18.407   5.218   7.803  1.00  0.00     0.052 C 
BRANCH   6   7
HETATM    7  C4  UNL     1     -16.965   5.101   7.456  1.00  0.00    -0.020 A 
HETATM    8  C5  UNL     1     -15.943   4.861   8.282  1.00  0.00    -0.011 A 
HETATM    9  C8  UNL     1     -14.715   4.826   7.525  1.00  0.00     0.067 A 
HETATM   10  C9  UNL     1     -13.359   4.638   7.871  1.00  0.00     0.062 C 
HETATM   11  N4  UNL     1     -15.030   5.047   6.252  1.00  0.00    -0.248 NA
HETATM   12  C10 UNL     1     -12.282   4.775   6.998  1.00  0.00     0.041 A 
HETATM   13  N1  UNL     1     -12.019   5.640   5.999  1.00  0.00    -0.355 N 
HETATM   14  C37 UNL     1     -11.237   3.826   7.084  1.00  0.00    -0.022 A 
HETATM   15  C11 UNL     1     -10.849   5.269   5.446  1.00  0.00     0.042 A 
HETATM   16  H10 UNL     1     -12.639   6.521   5.708  1.00  0.00     0.166 HD
HETATM   17  C12 UNL     1     -10.108   5.754   4.366  1.00  0.00     0.062 C 
HETATM   18  C34 UNL     1     -10.350   4.134   6.121  1.00  0.00    -0.013 A 
HETATM   19  C13 UNL     1     -10.650   6.168   3.135  1.00  0.00     0.066 A 
HETATM   20  N2  UNL     1     -11.977   6.094   2.957  1.00  0.00    -0.248 NA
HETATM   21  C30 UNL     1     -10.078   6.707   1.926  1.00  0.00    -0.020 A 
HETATM   22  C14 UNL     1     -12.292   6.544   1.729  1.00  0.00     0.067 A 
HETATM   23  C15 UNL     1     -13.638   6.559   1.339  1.00  0.00     0.062 C 
HETATM   24  C27 UNL     1     -11.066   6.945   1.048  1.00  0.00    -0.011 A 
HETATM   25  C16 UNL     1     -14.770   6.441   2.174  1.00  0.00     0.041 A 
HETATM   26  N3  UNL     1     -14.974   5.673   3.251  1.00  0.00    -0.355 N 
HETATM   27  C23 UNL     1     -15.894   7.268   1.930  1.00  0.00    -0.022 A 
HETATM   28  C17 UNL     1     -16.188   5.962   3.734  1.00  0.00     0.042 A 
HETATM   29  H13 UNL     1     -14.270   4.901   3.663  1.00  0.00     0.166 HD
HETATM   30  C18 UNL     1     -16.883   5.460   4.850  1.00  0.00     0.062 C 
HETATM   31  C20 UNL     1     -16.787   6.956   2.932  1.00  0.00    -0.013 A 
HETATM   32  C19 UNL     1     -16.369   5.221   6.130  1.00  0.00     0.066 A 
BRANCH   8  33
HETATM   33  C6  UNL     1     -16.088   4.659   9.750  1.00  0.00     0.151 C 
BRANCH  33  34
HETATM   34  C7  UNL     1     -15.783   5.876  10.537  1.00  0.00     0.143 C 
HETATM   35  O3  UNL     1     -14.904   5.827  11.419  1.00  0.00    -0.650 OA
BRANCH  34  36
HETATM   36  O4  UNL     1     -16.488   7.026  10.263  1.00  0.00    -0.776 OA
HETATM   37  H8  UNL     1     -16.122   7.915  10.602  1.00  0.00     0.167 HD
ENDBRANCH  34  36
ENDBRANCH  33  34
ENDBRANCH   8  33
BRANCH  31  38
HETATM   38  C21 UNL     1     -18.144   7.604   3.126  1.00  0.00     0.151 C 
BRANCH  38  39
HETATM   39  C22 UNL     1     -17.916   8.874   3.854  1.00  0.00     0.143 C 
HETATM   40  O5  UNL     1     -18.679   9.842   3.646  1.00  0.00    -0.650 OA
BRANCH  39  41
HETATM   41  O6  UNL     1     -16.887   9.049   4.767  1.00  0.00    -0.776 OA
HETATM   42  H17 UNL     1     -17.027   9.582   5.635  1.00  0.00     0.167 HD
ENDBRANCH  39  41
ENDBRANCH  38  39
ENDBRANCH  31  38
BRANCH  27  43
HETATM   43  C24 UNL     1     -16.129   8.272   0.857  1.00  0.00     0.052 C 
BRANCH  43  44
HETATM   44  C25 UNL     1     -15.609   9.600   1.214  1.00  0.00     0.115 C 
BRANCH  44  45
HETATM   45  C26 UNL     1     -16.378  10.790   0.862  1.00  0.00     0.139 C 
HETATM   46  O7  UNL     1     -16.715  11.234  -0.230  1.00  0.00    -0.650 OA
BRANCH  45  47
HETATM   47  O8  UNL     1     -16.802  11.563   1.979  1.00  0.00    -0.776 OA
HETATM   48  H22 UNL     1     -16.699  11.257   2.915  1.00  0.00     0.167 HD
ENDBRANCH  45  47
ENDBRANCH  44  45
ENDBRANCH  43  44
ENDBRANCH  27  43
BRANCH  24  49
HETATM   49  C28 UNL     1     -10.955   7.508  -0.335  1.00  0.00     0.151 C 
BRANCH  49  50
HETATM   50  C29 UNL     1     -11.527   8.875  -0.397  1.00  0.00     0.143 C 
HETATM   51  O9  UNL     1     -10.914   9.809   0.168  1.00  0.00    -0.650 OA
BRANCH  50  52
HETATM   52  O10 UNL     1     -12.709   9.172  -1.051  1.00  0.00    -0.776 OA
HETATM   53  H25 UNL     1     -13.119  10.115  -1.026  1.00  0.00     0.167 HD
ENDBRANCH  50  52
ENDBRANCH  49  50
ENDBRANCH  24  49
BRANCH  21  54
HETATM   54  C31 UNL     1      -8.638   6.988   1.664  1.00  0.00     0.052 C 
BRANCH  54  55
HETATM   55  C32 UNL     1      -7.765   5.785   1.650  1.00  0.00     0.115 C 
BRANCH  55  56
HETATM   56  C33 UNL     1      -7.211   5.683   0.250  1.00  0.00     0.139 C 
HETATM   57  O11 UNL     1      -7.700   6.360  -0.689  1.00  0.00    -0.650 OA
BRANCH  56  58
HETATM   58  O12 UNL     1      -6.147   4.845  -0.056  1.00  0.00    -0.776 OA
HETATM   59  H30 UNL     1      -6.393   3.987  -0.557  1.00  0.00     0.167 HD
ENDBRANCH  56  58
ENDBRANCH  55  56
ENDBRANCH  54  55
ENDBRANCH  21  54
BRANCH  18  60
HETATM   60  C35 UNL     1      -9.082   3.363   5.900  1.00  0.00     0.151 C 
BRANCH  60  61
HETATM   61  C36 UNL     1      -9.411   2.197   5.077  1.00  0.00     0.143 C 
HETATM   62  O13 UNL     1      -9.579   2.336   3.833  1.00  0.00    -0.650 OA
BRANCH  61  63
HETATM   63  O14 UNL     1      -9.549   0.920   5.605  1.00  0.00    -0.776 OA
HETATM   64  H33 UNL     1      -8.767   0.513   6.089  1.00  0.00     0.167 HD
ENDBRANCH  61  63
ENDBRANCH  60  61
ENDBRANCH  18  60
BRANCH  14  65
HETATM   65  C38 UNL     1     -11.057   2.683   8.041  1.00  0.00     0.052 C 
BRANCH  65  66
HETATM   66  C39 UNL     1     -10.278   3.151   9.236  1.00  0.00     0.115 C 
BRANCH  66  67
HETATM   67  C40 UNL     1      -9.157   2.169   9.482  1.00  0.00     0.139 C 
HETATM   68  O15 UNL     1      -8.567   2.143  10.594  1.00  0.00    -0.650 OA
BRANCH  67  69
HETATM   69  O16 UNL     1      -8.768   1.297   8.503  1.00  0.00    -0.776 OA
HETATM   70  H38 UNL     1      -9.367   1.070   7.728  1.00  0.00     0.167 HD
ENDBRANCH  67  69
ENDBRANCH  66  67
ENDBRANCH  65  66
ENDBRANCH  14  65
ENDBRANCH   6   7
ENDBRANCH   5   6
ENDBRANCH   2   5
TORSDOF 28
ENDMDL
MODEL 14
REMARK VINA RESULT:      -6.9     19.362     22.732
REMARK  28 active torsions:
REMARK  status: ('A' for Active; 'I' for Inactive)
REMARK    1  A    between atoms: C1_2  and  O2_3 
REMARK    2  A    between atoms: C1_2  and  C2_4 
REMARK    3  A    between atoms: C2_4  and  C3_5 
REMARK    4  A    between atoms: C3_5  and  C4_6 
REMARK    5  A    between atoms: C5_7  and  C6_8 
REMARK    6  A    between atoms: C6_8  and  C7_9 
REMARK    7  A    between atoms: C7_9  and  O4_11 
REMARK    8  A    between atoms: C20_28  and  C21_29 
REMARK    9  A    between atoms: C21_29  and  C22_30 
REMARK   10  A    between atoms: C22_30  and  O6_32 
REMARK   11  A    between atoms: C23_33  and  C24_34 
REMARK   12  A    between atoms: C24_34  and  C25_35 
REMARK   13  A    between atoms: C25_35  and  C26_36 
REMARK   14  A    between atoms: C26_36  and  O8_38 
REMARK   15  A    between atoms: C27_39  and  C28_40 
REMARK   16  A    between atoms: C28_40  and  C29_41 
REMARK   17  A    between atoms: C29_41  and  O10_43 
REMARK   18  A    between atoms: C30_44  and  C31_45 
REMARK   19  A    between atoms: C31_45  and  C32_46 
REMARK   20  A    between atoms: C32_46  and  C33_47 
REMARK   21  A    between atoms: C33_47  and  O12_49 
REMARK   22  A    between atoms: C34_50  and  C35_51 
REMARK   23  A    between atoms: C35_51  and  C36_52 
REMARK   24  A    between atoms: C36_52  and  O14_54 
REMARK   25  A    between atoms: C37_55  and  C38_56 
REMARK   26  A    between atoms: C38_56  and  C39_57 
REMARK   27  A    between atoms: C39_57  and  C40_58 
REMARK   28  A    between atoms: C40_58  and  O16_60 
ROOT
HETATM    1  O1  UNL     1     -19.584   7.439   2.899  1.00  0.00    -0.650 OA
HETATM    2  C1  UNL     1     -18.655   6.626   2.822  1.00  0.00     0.139 C 
ENDROOT
BRANCH   2   3
HETATM    3  O2  UNL     1     -18.302   6.173   1.549  1.00  0.00    -0.776 OA
HETATM    4  H1  UNL     1     -17.519   6.558   1.031  1.00  0.00     0.167 HD
ENDBRANCH   2   3
BRANCH   2   5
HETATM    5  C2  UNL     1     -17.920   6.127   4.000  1.00  0.00     0.115 C 
BRANCH   5   6
HETATM    6  C3  UNL     1     -17.123   7.160   4.710  1.00  0.00     0.052 C 
BRANCH   6   7
HETATM    7  C4  UNL     1     -15.794   6.623   5.106  1.00  0.00    -0.020 A 
HETATM    8  C5  UNL     1     -15.369   6.319   6.336  1.00  0.00    -0.011 A 
HETATM    9  C8  UNL     1     -14.014   5.826   6.265  1.00  0.00     0.067 A 
HETATM   10  C9  UNL     1     -13.083   5.389   7.231  1.00  0.00     0.062 C 
HETATM   11  N4  UNL     1     -13.655   5.844   4.985  1.00  0.00    -0.248 NA
HETATM   12  C10 UNL     1     -11.751   5.071   6.975  1.00  0.00     0.041 A 
HETATM   13  N1  UNL     1     -10.820   5.614   6.167  1.00  0.00    -0.355 N 
HETATM   14  C37 UNL     1     -11.208   3.935   7.619  1.00  0.00    -0.022 A 
HETATM   15  C11 UNL     1      -9.710   4.860   6.270  1.00  0.00     0.042 A 
HETATM   16  H10 UNL     1     -10.938   6.538   5.552  1.00  0.00     0.166 HD
HETATM   17  C12 UNL     1      -8.462   4.910   5.647  1.00  0.00     0.062 C 
HETATM   18  C34 UNL     1      -9.943   3.806   7.180  1.00  0.00    -0.013 A 
HETATM   19  C13 UNL     1      -8.250   5.175   4.281  1.00  0.00     0.066 A 
HETATM   20  N2  UNL     1      -9.314   5.392   3.494  1.00  0.00    -0.248 NA
HETATM   21  C30 UNL     1      -7.070   5.291   3.460  1.00  0.00    -0.020 A 
HETATM   22  C14 UNL     1      -8.901   5.637   2.237  1.00  0.00     0.067 A 
HETATM   23  C15 UNL     1      -9.860   5.899   1.249  1.00  0.00     0.062 C 
HETATM   24  C27 UNL     1      -7.444   5.573   2.201  1.00  0.00    -0.011 A 
HETATM   25  C16 UNL     1     -11.215   6.241   1.445  1.00  0.00     0.041 A 
HETATM   26  N3  UNL     1     -12.099   5.791   2.343  1.00  0.00    -0.355 N 
HETATM   27  C23 UNL     1     -11.795   7.248   0.634  1.00  0.00    -0.022 A 
HETATM   28  C17 UNL     1     -13.242   6.464   2.163  1.00  0.00     0.042 A 
HETATM   29  H13 UNL     1     -11.930   4.975   3.096  1.00  0.00     0.166 HD
HETATM   30  C18 UNL     1     -14.474   6.394   2.841  1.00  0.00     0.062 C 
HETATM   31  C20 UNL     1     -13.083   7.382   1.104  1.00  0.00    -0.013 A 
HETATM   32  C19 UNL     1     -14.675   6.312   4.224  1.00  0.00     0.066 A 
BRANCH   8  33
HETATM   33  C6  UNL     1     -16.196   6.473   7.564  1.00  0.00     0.151 C 
BRANCH  33  34
HETATM   34  C7  UNL     1     -16.947   5.246   7.917  1.00  0.00     0.143 C 
HETATM   35  O3  UNL     1     -16.347   4.297   8.458  1.00  0.00    -0.650 OA
BRANCH  34  36
HETATM   36  O4  UNL     1     -18.294   5.198   7.630  1.00  0.00    -0.776 OA
HETATM   37  H8  UNL     1     -18.883   4.559   8.162  1.00  0.00     0.167 HD
ENDBRANCH  34  36
ENDBRANCH  33  34
ENDBRANCH   8  33
BRANCH  31  38
HETATM   38  C21 UNL     1     -14.107   8.369   0.577  1.00  0.00     0.151 C 
BRANCH  38  39
HETATM   39  C22 UNL     1     -15.126   7.583  -0.156  1.00  0.00     0.143 C 
HETATM   40  O5  UNL     1     -16.336   7.854   0.004  1.00  0.00    -0.650 OA
BRANCH  39  41
HETATM   41  O6  UNL     1     -14.806   6.550  -1.023  1.00  0.00    -0.776 OA
HETATM   42  H17 UNL     1     -13.833   6.250  -1.162  1.00  0.00     0.167 HD
ENDBRANCH  39  41
ENDBRANCH  38  39
ENDBRANCH  31  38
BRANCH  27  43
HETATM   43  C24 UNL     1     -11.208   8.029  -0.488  1.00  0.00     0.052 C 
BRANCH  43  44
HETATM   44  C25 UNL     1     -10.586   9.279  -0.029  1.00  0.00     0.115 C 
BRANCH  44  45
HETATM   45  C26 UNL     1      -9.243   9.624  -0.488  1.00  0.00     0.139 C 
HETATM   46  O7  UNL     1      -8.752   9.617  -1.611  1.00  0.00    -0.650 OA
BRANCH  45  47
HETATM   47  O8  UNL     1      -8.359  10.035   0.549  1.00  0.00    -0.776 OA
HETATM   48  H22 UNL     1      -7.393  10.193   0.401  1.00  0.00     0.167 HD
ENDBRANCH  45  47
ENDBRANCH  44  45
ENDBRANCH  43  44
ENDBRANCH  27  43
BRANCH  24  49
HETATM   49  C28 UNL     1      -6.569   5.787   1.006  1.00  0.00     0.151 C 
BRANCH  49  50
HETATM   50  C29 UNL     1      -6.471   7.230   0.673  1.00  0.00     0.143 C 
HETATM   51  O9  UNL     1      -6.272   8.047   1.600  1.00  0.00    -0.650 OA
BRANCH  50  52
HETATM   52  O10 UNL     1      -6.590   7.719  -0.615  1.00  0.00    -0.776 OA
HETATM   53  H25 UNL     1      -5.792   7.734  -1.264  1.00  0.00     0.167 HD
ENDBRANCH  50  52
ENDBRANCH  49  50
ENDBRANCH  24  49
BRANCH  21  54
HETATM   54  C31 UNL     1      -5.654   5.148   3.902  1.00  0.00     0.052 C 
BRANCH  54  55
HETATM   55  C32 UNL     1      -5.034   6.402   4.406  1.00  0.00     0.115 C 
BRANCH  55  56
HETATM   56  C33 UNL     1      -3.700   6.521   3.709  1.00  0.00     0.139 C 
HETATM   57  O11 UNL     1      -2.688   5.917   4.144  1.00  0.00    -0.650 OA
BRANCH  56  58
HETATM   58  O12 UNL     1      -3.538   7.297   2.569  1.00  0.00    -0.776 OA
HETATM   59  H30 UNL     1      -4.156   7.064   1.787  1.00  0.00     0.167 HD
ENDBRANCH  56  58
ENDBRANCH  55  56
ENDBRANCH  54  55
ENDBRANCH  21  54
BRANCH  18  60
HETATM   60  C35 UNL     1      -9.021   2.719   7.649  1.00  0.00     0.151 C 
BRANCH  60  61
HETATM   61  C36 UNL     1      -8.870   1.763   6.550  1.00  0.00     0.143 C 
HETATM   62  O13 UNL     1      -7.765   1.675   5.944  1.00  0.00    -0.650 OA
BRANCH  61  63
HETATM   63  O14 UNL     1      -9.899   0.929   6.133  1.00  0.00    -0.776 OA
HETATM   64  H33 UNL     1      -9.956   0.004   6.524  1.00  0.00     0.167 HD
ENDBRANCH  61  63
ENDBRANCH  60  61
ENDBRANCH  18  60
BRANCH  14  65
HETATM   65  C38 UNL     1     -11.834   3.011   8.622  1.00  0.00     0.052 C 
BRANCH  65  66
HETATM   66  C39 UNL     1     -11.636   3.566  10.003  1.00  0.00     0.115 C 
BRANCH  66  67
HETATM   67  C40 UNL     1     -12.960   3.511  10.728  1.00  0.00     0.139 C 
HETATM   68  O15 UNL     1     -13.088   2.812  11.767  1.00  0.00    -0.650 OA
BRANCH  67  69
HETATM   69  O16 UNL     1     -14.036   4.218  10.267  1.00  0.00    -0.776 OA
HETATM   70  H38 UNL     1     -14.970   4.031  10.590  1.00  0.00     0.167 HD
ENDBRANCH  67  69
ENDBRANCH  66  67
ENDBRANCH  65  66
ENDBRANCH  14  65
ENDBRANCH   6   7
ENDBRANCH   5   6
ENDBRANCH   2   5
TORSDOF 28
ENDMDL
MODEL 15
REMARK VINA RESULT:      -6.9     17.520     20.022
REMARK  28 active torsions:
REMARK  status: ('A' for Active; 'I' for Inactive)
REMARK    1  A    between atoms: C1_2  and  O2_3 
REMARK    2  A    between atoms: C1_2  and  C2_4 
REMARK    3  A    between atoms: C2_4  and  C3_5 
REMARK    4  A    between atoms: C3_5  and  C4_6 
REMARK    5  A    between atoms: C5_7  and  C6_8 
REMARK    6  A    between atoms: C6_8  and  C7_9 
REMARK    7  A    between atoms: C7_9  and  O4_11 
REMARK    8  A    between atoms: C20_28  and  C21_29 
REMARK    9  A    between atoms: C21_29  and  C22_30 
REMARK   10  A    between atoms: C22_30  and  O6_32 
REMARK   11  A    between atoms: C23_33  and  C24_34 
REMARK   12  A    between atoms: C24_34  and  C25_35 
REMARK   13  A    between atoms: C25_35  and  C26_36 
REMARK   14  A    between atoms: C26_36  and  O8_38 
REMARK   15  A    between atoms: C27_39  and  C28_40 
REMARK   16  A    between atoms: C28_40  and  C29_41 
REMARK   17  A    between atoms: C29_41  and  O10_43 
REMARK   18  A    between atoms: C30_44  and  C31_45 
REMARK   19  A    between atoms: C31_45  and  C32_46 
REMARK   20  A    between atoms: C32_46  and  C33_47 
REMARK   21  A    between atoms: C33_47  and  O12_49 
REMARK   22  A    between atoms: C34_50  and  C35_51 
REMARK   23  A    between atoms: C35_51  and  C36_52 
REMARK   24  A    between atoms: C36_52  and  O14_54 
REMARK   25  A    between atoms: C37_55  and  C38_56 
REMARK   26  A    between atoms: C38_56  and  C39_57 
REMARK   27  A    between atoms: C39_57  and  C40_58 
REMARK   28  A    between atoms: C40_58  and  O16_60 
ROOT
HETATM    1  O1  UNL     1     -17.987  11.307   2.405  1.00  0.00    -0.650 OA
HETATM    2  C1  UNL     1     -18.854  10.530   1.989  1.00  0.00     0.139 C 
ENDROOT
BRANCH   2   3
HETATM    3  O2  UNL     1     -19.642  10.959   0.918  1.00  0.00    -0.776 OA
HETATM    4  H1  UNL     1     -20.402  11.620   1.031  1.00  0.00     0.167 HD
ENDBRANCH   2   3
BRANCH   2   5
HETATM    5  C2  UNL     1     -19.084   9.191   2.567  1.00  0.00     0.115 C 
BRANCH   5   6
HETATM    6  C3  UNL     1     -18.695   8.065   1.681  1.00  0.00     0.052 C 
BRANCH   6   7
HETATM    7  C4  UNL     1     -17.220   7.874   1.684  1.00  0.00    -0.020 A 
HETATM    8  C5  UNL     1     -16.388   7.925   0.640  1.00  0.00    -0.011 A 
HETATM    9  C8  UNL     1     -15.038   7.685   1.093  1.00  0.00     0.067 A 
HETATM   10  C9  UNL     1     -13.789   7.602   0.440  1.00  0.00     0.062 C 
HETATM   11  N4  UNL     1     -15.092   7.496   2.408  1.00  0.00    -0.248 NA
HETATM   12  C10 UNL     1     -12.592   7.222   1.044  1.00  0.00     0.041 A 
HETATM   13  N1  UNL     1     -12.291   6.293   1.971  1.00  0.00    -0.355 N 
HETATM   14  C37 UNL     1     -11.423   7.940   0.701  1.00  0.00    -0.022 A 
HETATM   15  C11 UNL     1     -10.975   6.400   2.233  1.00  0.00     0.042 A 
HETATM   16  H10 UNL     1     -12.995   5.549   2.415  1.00  0.00     0.166 HD
HETATM   17  C12 UNL     1     -10.123   5.742   3.122  1.00  0.00     0.062 C 
HETATM   18  C34 UNL     1     -10.422   7.429   1.440  1.00  0.00    -0.013 A 
HETATM   19  C13 UNL     1     -10.441   5.412   4.453  1.00  0.00     0.066 A 
HETATM   20  N2  UNL     1     -11.647   5.751   4.930  1.00  0.00    -0.248 NA
HETATM   21  C30 UNL     1      -9.731   4.732   5.508  1.00  0.00    -0.020 A 
HETATM   22  C14 UNL     1     -11.758   5.338   6.206  1.00  0.00     0.067 A 
HETATM   23  C15 UNL     1     -12.952   5.588   6.896  1.00  0.00     0.062 C 
HETATM   24  C27 UNL     1     -10.518   4.676   6.594  1.00  0.00    -0.011 A 
HETATM   25  C16 UNL     1     -14.197   5.958   6.342  1.00  0.00     0.041 A 
HETATM   26  N3  UNL     1     -14.479   6.784   5.327  1.00  0.00    -0.355 N 
HETATM   27  C23 UNL     1     -15.380   5.372   6.854  1.00  0.00    -0.022 A 
HETATM   28  C17 UNL     1     -15.804   6.763   5.142  1.00  0.00     0.042 A 
HETATM   29  H13 UNL     1     -13.745   7.407   4.749  1.00  0.00     0.166 HD
HETATM   30  C18 UNL     1     -16.619   7.430   4.207  1.00  0.00     0.062 C 
HETATM   31  C20 UNL     1     -16.395   5.889   6.079  1.00  0.00    -0.013 A 
HETATM   32  C19 UNL     1     -16.374   7.595   2.838  1.00  0.00     0.066 A 
BRANCH   8  33
HETATM   33  C6  UNL     1     -16.821   8.195  -0.759  1.00  0.00     0.151 C 
BRANCH  33  34
HETATM   34  C7  UNL     1     -17.101   9.627  -1.014  1.00  0.00     0.143 C 
HETATM   35  O3  UNL     1     -16.312  10.490  -0.583  1.00  0.00    -0.650 OA
BRANCH  34  36
HETATM   36  O4  UNL     1     -18.234   9.955  -1.725  1.00  0.00    -0.776 OA
HETATM   37  H8  UNL     1     -18.760  10.784  -1.449  1.00  0.00     0.167 HD
ENDBRANCH  34  36
ENDBRANCH  33  34
ENDBRANCH   8  33
BRANCH  31  38
HETATM   38  C21 UNL     1     -17.864   5.538   6.215  1.00  0.00     0.151 C 
BRANCH  38  39
HETATM   39  C22 UNL     1     -18.081   4.287   5.453  1.00  0.00     0.143 C 
HETATM   40  O5  UNL     1     -18.314   3.227   6.074  1.00  0.00    -0.650 OA
BRANCH  39  41
HETATM   41  O6  UNL     1     -18.040   4.226   4.069  1.00  0.00    -0.776 OA
HETATM   42  H17 UNL     1     -18.249   3.355   3.565  1.00  0.00     0.167 HD
ENDBRANCH  39  41
ENDBRANCH  38  39
ENDBRANCH  31  38
BRANCH  27  43
HETATM   43  C24 UNL     1     -15.564   4.406   7.971  1.00  0.00     0.052 C 
BRANCH  43  44
HETATM   44  C25 UNL     1     -15.949   5.072   9.224  1.00  0.00     0.115 C 
BRANCH  44  45
HETATM   45  C26 UNL     1     -14.962   5.868   9.947  1.00  0.00     0.139 C 
HETATM   46  O7  UNL     1     -13.891   5.552  10.454  1.00  0.00    -0.650 OA
BRANCH  45  47
HETATM   47  O8  UNL     1     -15.307   7.242  10.087  1.00  0.00    -0.776 OA
HETATM   48  H22 UNL     1     -15.272   7.884   9.334  1.00  0.00     0.167 HD
ENDBRANCH  45  47
ENDBRANCH  44  45
ENDBRANCH  43  44
ENDBRANCH  27  43
BRANCH  24  49
HETATM   49  C28 UNL     1     -10.211   4.061   7.924  1.00  0.00     0.151 C 
BRANCH  49  50
HETATM   50  C29 UNL     1     -11.100   2.903   8.190  1.00  0.00     0.143 C 
HETATM   51  O9  UNL     1     -11.857   2.945   9.187  1.00  0.00    -0.650 OA
BRANCH  50  52
HETATM   52  O10 UNL     1     -11.135   1.775   7.391  1.00  0.00    -0.776 OA
HETATM   53  H25 UNL     1     -11.494   0.876   7.739  1.00  0.00     0.167 HD
ENDBRANCH  50  52
ENDBRANCH  49  50
ENDBRANCH  24  49
BRANCH  21  54
HETATM   54  C31 UNL     1      -8.358   4.155   5.436  1.00  0.00     0.052 C 
BRANCH  54  55
HETATM   55  C32 UNL     1      -8.305   2.738   4.989  1.00  0.00     0.115 C 
BRANCH  55  56
HETATM   56  C33 UNL     1      -7.772   1.948   6.159  1.00  0.00     0.139 C 
HETATM   57  O11 UNL     1      -6.644   2.202   6.650  1.00  0.00    -0.650 OA
BRANCH  56  58
HETATM   58  O12 UNL     1      -8.499   0.915   6.735  1.00  0.00    -0.776 OA
HETATM   59  H30 UNL     1      -8.434   0.012   6.257  1.00  0.00     0.167 HD
ENDBRANCH  56  58
ENDBRANCH  55  56
ENDBRANCH  54  55
ENDBRANCH  21  54
BRANCH  18  60
HETATM   60  C35 UNL     1      -9.006   7.917   1.349  1.00  0.00     0.151 C 
BRANCH  60  61
HETATM   61  C36 UNL     1      -8.228   6.888   0.655  1.00  0.00     0.143 C 
HETATM   62  O13 UNL     1      -7.129   6.500   1.142  1.00  0.00    -0.650 OA
BRANCH  61  63
HETATM   63  O14 UNL     1      -8.645   6.305  -0.534  1.00  0.00    -0.776 OA
HETATM   64  H33 UNL     1      -9.624   6.329  -0.764  1.00  0.00     0.167 HD
ENDBRANCH  61  63
ENDBRANCH  60  61
ENDBRANCH  18  60
BRANCH  14  65
HETATM   65  C38 UNL     1     -11.236   9.049  -0.293  1.00  0.00     0.052 C 
BRANCH  65  66
HETATM   66  C39 UNL     1     -11.285   8.487  -1.683  1.00  0.00     0.115 C 
BRANCH  66  67
HETATM   67  C40 UNL     1     -10.099   9.021  -2.451  1.00  0.00     0.139 C 
HETATM   68  O15 UNL     1     -10.251   9.942  -3.295  1.00  0.00    -0.650 OA
BRANCH  67  69
HETATM   69  O16 UNL     1      -8.847   8.513  -2.240  1.00  0.00    -0.776 OA
HETATM   70  H38 UNL     1      -8.591   7.591  -2.549  1.00  0.00     0.167 HD
ENDBRANCH  67  69
ENDBRANCH  66  67
ENDBRANCH  65  66
ENDBRANCH  14  65
ENDBRANCH   6   7
ENDBRANCH   5   6
ENDBRANCH   2   5
TORSDOF 28
ENDMDL
MODEL 16
REMARK VINA RESULT:      -6.9     18.181     20.654
REMARK  28 active torsions:
REMARK  status: ('A' for Active; 'I' for Inactive)
REMARK    1  A    between atoms: C1_2  and  O2_3 
REMARK    2  A    between atoms: C1_2  and  C2_4 
REMARK    3  A    between atoms: C2_4  and  C3_5 
REMARK    4  A    between atoms: C3_5  and  C4_6 
REMARK    5  A    between atoms: C5_7  and  C6_8 
REMARK    6  A    between atoms: C6_8  and  C7_9 
REMARK    7  A    between atoms: C7_9  and  O4_11 
REMARK    8  A    between atoms: C20_28  and  C21_29 
REMARK    9  A    between atoms: C21_29  and  C22_30 
REMARK   10  A    between atoms: C22_30  and  O6_32 
REMARK   11  A    between atoms: C23_33  and  C24_34 
REMARK   12  A    between atoms: C24_34  and  C25_35 
REMARK   13  A    between atoms: C25_35  and  C26_36 
REMARK   14  A    between atoms: C26_36  and  O8_38 
REMARK   15  A    between atoms: C27_39  and  C28_40 
REMARK   16  A    between atoms: C28_40  and  C29_41 
REMARK   17  A    between atoms: C29_41  and  O10_43 
REMARK   18  A    between atoms: C30_44  and  C31_45 
REMARK   19  A    between atoms: C31_45  and  C32_46 
REMARK   20  A    between atoms: C32_46  and  C33_47 
REMARK   21  A    between atoms: C33_47  and  O12_49 
REMARK   22  A    between atoms: C34_50  and  C35_51 
REMARK   23  A    between atoms: C35_51  and  C36_52 
REMARK   24  A    between atoms: C36_52  and  O14_54 
REMARK   25  A    between atoms: C37_55  and  C38_56 
REMARK   26  A    between atoms: C38_56  and  C39_57 
REMARK   27  A    between atoms: C39_57  and  C40_58 
REMARK   28  A    between atoms: C40_58  and  O16_60 
ROOT
HETATM    1  O1  UNL     1     -19.380   6.561   4.234  1.00  0.00    -0.650 OA
HETATM    2  C1  UNL     1     -18.949   6.371   3.090  1.00  0.00     0.139 C 
ENDROOT
BRANCH   2   3
HETATM    3  O2  UNL     1     -18.452   5.100   2.793  1.00  0.00    -0.776 OA
HETATM    4  H1  UNL     1     -18.589   4.658   1.890  1.00  0.00     0.167 HD
ENDBRANCH   2   3
BRANCH   2   5
HETATM    5  C2  UNL     1     -18.941   7.416   2.047  1.00  0.00     0.115 C 
BRANCH   5   6
HETATM    6  C3  UNL     1     -18.080   8.586   2.357  1.00  0.00     0.052 C 
BRANCH   6   7
HETATM    7  C4  UNL     1     -16.642   8.242   2.191  1.00  0.00    -0.020 A 
HETATM    8  C5  UNL     1     -15.924   8.252   1.064  1.00  0.00    -0.011 A 
HETATM    9  C8  UNL     1     -14.569   7.853   1.357  1.00  0.00     0.067 A 
HETATM   10  C9  UNL     1     -13.412   7.669   0.568  1.00  0.00     0.062 C 
HETATM   11  N4  UNL     1     -14.503   7.613   2.663  1.00  0.00    -0.248 NA
HETATM   12  C10 UNL     1     -12.207   7.139   1.024  1.00  0.00     0.041 A 
HETATM   13  N1  UNL     1     -11.911   6.144   1.881  1.00  0.00    -0.355 N 
HETATM   14  C37 UNL     1     -11.010   7.746   0.578  1.00  0.00    -0.022 A 
HETATM   15  C11 UNL     1     -10.571   6.101   2.000  1.00  0.00     0.042 A 
HETATM   16  H10 UNL     1     -12.641   5.459   2.375  1.00  0.00     0.166 HD
HETATM   17  C12 UNL     1      -9.705   5.320   2.767  1.00  0.00     0.062 C 
HETATM   18  C34 UNL     1      -9.997   7.101   1.184  1.00  0.00    -0.013 A 
HETATM   19  C13 UNL     1      -9.915   4.966   4.113  1.00  0.00     0.066 A 
HETATM   20  N2  UNL     1     -11.019   5.408   4.732  1.00  0.00    -0.248 NA
HETATM   21  C30 UNL     1      -9.174   4.170   5.061  1.00  0.00    -0.020 A 
HETATM   22  C14 UNL     1     -11.038   4.953   5.998  1.00  0.00     0.067 A 
HETATM   23  C15 UNL     1     -12.118   5.295   6.823  1.00  0.00     0.062 C 
HETATM   24  C27 UNL     1      -9.843   4.148   6.225  1.00  0.00    -0.011 A 
HETATM   25  C16 UNL     1     -13.367   5.817   6.422  1.00  0.00     0.041 A 
HETATM   26  N3  UNL     1     -13.664   6.712   5.472  1.00  0.00    -0.355 N 
HETATM   27  C23 UNL     1     -14.546   5.336   7.042  1.00  0.00    -0.022 A 
HETATM   28  C17 UNL     1     -14.996   6.837   5.434  1.00  0.00     0.042 A 
HETATM   29  H13 UNL     1     -12.932   7.280   4.837  1.00  0.00     0.166 HD
HETATM   30  C18 UNL     1     -15.828   7.626   4.616  1.00  0.00     0.062 C 
HETATM   31  C20 UNL     1     -15.575   5.990   6.401  1.00  0.00    -0.013 A 
HETATM   32  C19 UNL     1     -15.713   7.826   3.235  1.00  0.00     0.066 A 
BRANCH   8  33
HETATM   33  C6  UNL     1     -16.472   8.627  -0.269  1.00  0.00     0.151 C 
BRANCH  33  34
HETATM   34  C7  UNL     1     -16.734  10.079  -0.401  1.00  0.00     0.143 C 
HETATM   35  O3  UNL     1     -17.692  10.465  -1.100  1.00  0.00    -0.650 OA
BRANCH  34  36
HETATM   36  O4  UNL     1     -15.903  10.957   0.258  1.00  0.00    -0.776 OA
HETATM   37  H8  UNL     1     -15.305  11.571  -0.294  1.00  0.00     0.167 HD
ENDBRANCH  34  36
ENDBRANCH  33  34
ENDBRANCH   8  33
BRANCH  31  38
HETATM   38  C21 UNL     1     -17.050   5.788   6.687  1.00  0.00     0.151 C 
BRANCH  38  39
HETATM   39  C22 UNL     1     -17.406   4.439   6.190  1.00  0.00     0.143 C 
HETATM   40  O5  UNL     1     -17.048   4.097   5.042  1.00  0.00    -0.650 OA
BRANCH  39  41
HETATM   41  O6  UNL     1     -18.124   3.521   6.942  1.00  0.00    -0.776 OA
HETATM   42  H17 UNL     1     -17.669   2.698   7.358  1.00  0.00     0.167 HD
ENDBRANCH  39  41
ENDBRANCH  38  39
ENDBRANCH  31  38
BRANCH  27  43
HETATM   43  C24 UNL     1     -14.714   4.346   8.140  1.00  0.00     0.052 C 
BRANCH  43  44
HETATM   44  C25 UNL     1     -14.617   4.968   9.469  1.00  0.00     0.115 C 
BRANCH  44  45
HETATM   45  C26 UNL     1     -13.426   4.742  10.283  1.00  0.00     0.139 C 
HETATM   46  O7  UNL     1     -12.960   5.384  11.219  1.00  0.00    -0.650 OA
BRANCH  45  47
HETATM   47  O8  UNL     1     -12.684   3.582   9.925  1.00  0.00    -0.776 OA
HETATM   48  H22 UNL     1     -11.722   3.609   9.695  1.00  0.00     0.167 HD
ENDBRANCH  45  47
ENDBRANCH  44  45
ENDBRANCH  43  44
ENDBRANCH  27  43
BRANCH  24  49
HETATM   49  C28 UNL     1      -9.465   3.446   7.492  1.00  0.00     0.151 C 
BRANCH  49  50
HETATM   50  C29 UNL     1      -9.904   2.029   7.464  1.00  0.00     0.143 C 
HETATM   51  O9  UNL     1     -11.131   1.781   7.488  1.00  0.00    -0.650 OA
BRANCH  50  52
HETATM   52  O10 UNL     1      -9.023   0.964   7.413  1.00  0.00    -0.776 OA
HETATM   53  H25 UNL     1      -9.345  -0.009   7.499  1.00  0.00     0.167 HD
ENDBRANCH  50  52
ENDBRANCH  49  50
ENDBRANCH  24  49
BRANCH  21  54
HETATM   54  C31 UNL     1      -7.888   3.456   4.819  1.00  0.00     0.052 C 
BRANCH  54  55
HETATM   55  C32 UNL     1      -6.677   4.196   5.263  1.00  0.00     0.115 C 
BRANCH  55  56
HETATM   56  C33 UNL     1      -5.885   3.234   6.115  1.00  0.00     0.139 C 
HETATM   57  O11 UNL     1      -6.410   2.183   6.561  1.00  0.00    -0.650 OA
BRANCH  56  58
HETATM   58  O12 UNL     1      -4.555   3.467   6.437  1.00  0.00    -0.776 OA
HETATM   59  H30 UNL     1      -4.288   3.232   7.397  1.00  0.00     0.167 HD
ENDBRANCH  56  58
ENDBRANCH  55  56
ENDBRANCH  54  55
ENDBRANCH  21  54
BRANCH  18  60
HETATM   60  C35 UNL     1      -8.554   7.442   0.953  1.00  0.00     0.151 C 
BRANCH  60  61
HETATM   61  C36 UNL     1      -8.146   6.811  -0.304  1.00  0.00     0.143 C 
HETATM   62  O13 UNL     1      -8.482   5.617  -0.542  1.00  0.00    -0.650 OA
BRANCH  61  63
HETATM   63  O14 UNL     1      -7.397   7.472  -1.268  1.00  0.00    -0.776 OA
HETATM   64  H33 UNL     1      -7.069   6.950  -2.063  1.00  0.00     0.167 HD
ENDBRANCH  61  63
ENDBRANCH  60  61
ENDBRANCH  18  60
BRANCH  14  65
HETATM   65  C38 UNL     1     -10.810   8.872  -0.394  1.00  0.00     0.052 C 
BRANCH  65  66
HETATM   66  C39 UNL     1     -11.173   8.410  -1.775  1.00  0.00     0.115 C 
BRANCH  66  67
HETATM   67  C40 UNL     1     -10.351   9.198  -2.768  1.00  0.00     0.139 C 
HETATM   68  O15 UNL     1     -10.858   9.578  -3.855  1.00  0.00    -0.650 OA
BRANCH  67  69
HETATM   69  O16 UNL     1      -9.046   9.508  -2.500  1.00  0.00    -0.776 OA
HETATM   70  H38 UNL     1      -8.779   9.991  -1.659  1.00  0.00     0.167 HD
ENDBRANCH  67  69
ENDBRANCH  66  67
ENDBRANCH  65  66
ENDBRANCH  14  65
ENDBRANCH   6   7
ENDBRANCH   5   6
ENDBRANCH   2   5
TORSDOF 28
ENDMDL
MODEL 17
REMARK VINA RESULT:      -6.9     19.096     21.832
REMARK  28 active torsions:
REMARK  status: ('A' for Active; 'I' for Inactive)
REMARK    1  A    between atoms: C1_2  and  O2_3 
REMARK    2  A    between atoms: C1_2  and  C2_4 
REMARK    3  A    between atoms: C2_4  and  C3_5 
REMARK    4  A    between atoms: C3_5  and  C4_6 
REMARK    5  A    between atoms: C5_7  and  C6_8 
REMARK    6  A    between atoms: C6_8  and  C7_9 
REMARK    7  A    between atoms: C7_9  and  O4_11 
REMARK    8  A    between atoms: C20_28  and  C21_29 
REMARK    9  A    between atoms: C21_29  and  C22_30 
REMARK   10  A    between atoms: C22_30  and  O6_32 
REMARK   11  A    between atoms: C23_33  and  C24_34 
REMARK   12  A    between atoms: C24_34  and  C25_35 
REMARK   13  A    between atoms: C25_35  and  C26_36 
REMARK   14  A    between atoms: C26_36  and  O8_38 
REMARK   15  A    between atoms: C27_39  and  C28_40 
REMARK   16  A    between atoms: C28_40  and  C29_41 
REMARK   17  A    between atoms: C29_41  and  O10_43 
REMARK   18  A    between atoms: C30_44  and  C31_45 
REMARK   19  A    between atoms: C31_45  and  C32_46 
REMARK   20  A    between atoms: C32_46  and  C33_47 
REMARK   21  A    between atoms: C33_47  and  O12_49 
REMARK   22  A    between atoms: C34_50  and  C35_51 
REMARK   23  A    between atoms: C35_51  and  C36_52 
REMARK   24  A    between atoms: C36_52  and  O14_54 
REMARK   25  A    between atoms: C37_55  and  C38_56 
REMARK   26  A    between atoms: C38_56  and  C39_57 
REMARK   27  A    between atoms: C39_57  and  C40_58 
REMARK   28  A    between atoms: C40_58  and  O16_60 
ROOT
HETATM    1  O1  UNL     1     -17.678   8.357   1.986  1.00  0.00    -0.650 OA
HETATM    2  C1  UNL     1     -17.264   7.532   1.163  1.00  0.00     0.139 C 
ENDROOT
BRANCH   2   3
HETATM    3  O2  UNL     1     -17.810   6.247   1.209  1.00  0.00    -0.776 OA
HETATM    4  H1  UNL     1     -17.241   5.410   1.147  1.00  0.00     0.167 HD
ENDBRANCH   2   3
BRANCH   2   5
HETATM    5  C2  UNL     1     -16.236   7.848   0.151  1.00  0.00     0.115 C 
BRANCH   5   6
HETATM    6  C3  UNL     1     -15.218   8.832   0.598  1.00  0.00     0.052 C 
BRANCH   6   7
HETATM    7  C4  UNL     1     -14.016   8.142   1.138  1.00  0.00    -0.020 A 
HETATM    8  C5  UNL     1     -12.916   7.776   0.474  1.00  0.00    -0.011 A 
HETATM    9  C8  UNL     1     -11.998   7.137   1.385  1.00  0.00     0.067 A 
HETATM   10  C9  UNL     1     -10.723   6.549   1.235  1.00  0.00     0.062 C 
HETATM   11  N4  UNL     1     -12.571   7.135   2.585  1.00  0.00    -0.248 NA
HETATM   12  C10 UNL     1     -10.040   5.849   2.228  1.00  0.00     0.041 A 
HETATM   13  N1  UNL     1     -10.444   4.990   3.183  1.00  0.00    -0.355 N 
HETATM   14  C37 UNL     1      -8.649   6.070   2.352  1.00  0.00    -0.022 A 
HETATM   15  C11 UNL     1      -9.360   4.662   3.912  1.00  0.00     0.042 A 
HETATM   16  H10 UNL     1     -11.478   4.595   3.322  1.00  0.00     0.166 HD
HETATM   17  C12 UNL     1      -9.176   3.859   5.038  1.00  0.00     0.062 C 
HETATM   18  C34 UNL     1      -8.229   5.334   3.396  1.00  0.00    -0.013 A 
HETATM   19  C13 UNL     1     -10.034   3.819   6.153  1.00  0.00     0.066 A 
HETATM   20  N2  UNL     1     -11.117   4.610   6.161  1.00  0.00    -0.248 NA
HETATM   21  C30 UNL     1     -10.038   3.064   7.381  1.00  0.00    -0.020 A 
HETATM   22  C14 UNL     1     -11.808   4.415   7.299  1.00  0.00     0.067 A 
HETATM   23  C15 UNL     1     -12.987   5.144   7.507  1.00  0.00     0.062 C 
HETATM   24  C27 UNL     1     -11.116   3.413   8.101  1.00  0.00    -0.011 A 
HETATM   25  C16 UNL     1     -13.731   5.857   6.542  1.00  0.00     0.041 A 
HETATM   26  N3  UNL     1     -13.319   6.603   5.510  1.00  0.00    -0.355 N 
HETATM   27  C23 UNL     1     -15.146   5.783   6.573  1.00  0.00    -0.022 A 
HETATM   28  C17 UNL     1     -14.406   7.023   4.852  1.00  0.00     0.042 A 
HETATM   29  H13 UNL     1     -12.256   6.859   5.255  1.00  0.00     0.166 HD
HETATM   30  C18 UNL     1     -14.538   7.816   3.697  1.00  0.00     0.062 C 
HETATM   31  C20 UNL     1     -15.562   6.526   5.490  1.00  0.00    -0.013 A 
HETATM   32  C19 UNL     1     -13.790   7.724   2.517  1.00  0.00     0.066 A 
BRANCH   8  33
HETATM   33  C6  UNL     1     -12.704   8.014  -0.981  1.00  0.00     0.151 C 
BRANCH  33  34
HETATM   34  C7  UNL     1     -11.434   8.716  -1.276  1.00  0.00     0.143 C 
HETATM   35  O3  UNL     1     -11.068   9.652  -0.538  1.00  0.00    -0.650 OA
BRANCH  34  36
HETATM   36  O4  UNL     1     -10.697   8.306  -2.365  1.00  0.00    -0.776 OA
HETATM   37  H8  UNL     1      -9.712   8.080  -2.230  1.00  0.00     0.167 HD
ENDBRANCH  34  36
ENDBRANCH  33  34
ENDBRANCH   8  33
BRANCH  31  38
HETATM   38  C21 UNL     1     -17.005   6.727   5.071  1.00  0.00     0.151 C 
BRANCH  38  39
HETATM   39  C22 UNL     1     -17.382   5.556   4.245  1.00  0.00     0.143 C 
HETATM   40  O5  UNL     1     -18.592   5.300   4.066  1.00  0.00    -0.650 OA
BRANCH  39  41
HETATM   41  O6  UNL     1     -16.451   4.719   3.650  1.00  0.00    -0.776 OA
HETATM   42  H17 UNL     1     -15.653   5.095   3.121  1.00  0.00     0.167 HD
ENDBRANCH  39  41
ENDBRANCH  38  39
ENDBRANCH  31  38
BRANCH  27  43
HETATM   43  C24 UNL     1     -16.047   5.081   7.525  1.00  0.00     0.052 C 
BRANCH  43  44
HETATM   44  C25 UNL     1     -16.221   3.662   7.184  1.00  0.00     0.115 C 
BRANCH  44  45
HETATM   45  C26 UNL     1     -17.534   3.042   7.334  1.00  0.00     0.139 C 
HETATM   46  O7  UNL     1     -18.533   3.415   7.940  1.00  0.00    -0.650 OA
BRANCH  45  47
HETATM   47  O8  UNL     1     -17.672   1.793   6.665  1.00  0.00    -0.776 OA
HETATM   48  H22 UNL     1     -17.521   1.685   5.693  1.00  0.00     0.167 HD
ENDBRANCH  45  47
ENDBRANCH  44  45
ENDBRANCH  43  44
ENDBRANCH  27  43
BRANCH  24  49
HETATM   49  C28 UNL     1     -11.539   2.891   9.439  1.00  0.00     0.151 C 
BRANCH  49  50
HETATM   50  C29 UNL     1     -10.852   3.619  10.533  1.00  0.00     0.143 C 
HETATM   51  O9  UNL     1     -11.098   4.836  10.691  1.00  0.00    -0.650 OA
BRANCH  50  52
HETATM   52  O10 UNL     1      -9.948   3.019  11.392  1.00  0.00    -0.776 OA
HETATM   53  H25 UNL     1     -10.243   2.616  12.291  1.00  0.00     0.167 HD
ENDBRANCH  50  52
ENDBRANCH  49  50
ENDBRANCH  24  49
BRANCH  21  54
HETATM   54  C31 UNL     1      -9.041   2.041   7.806  1.00  0.00     0.052 C 
BRANCH  54  55
HETATM   55  C32 UNL     1      -7.877   2.585   8.555  1.00  0.00     0.115 C 
BRANCH  55  56
HETATM   56  C33 UNL     1      -6.731   2.633   7.575  1.00  0.00     0.139 C 
HETATM   57  O11 UNL     1      -6.790   2.018   6.481  1.00  0.00    -0.650 OA
BRANCH  56  58
HETATM   58  O12 UNL     1      -5.574   3.353   7.838  1.00  0.00    -0.776 OA
HETATM   59  H30 UNL     1      -5.403   3.565   8.825  1.00  0.00     0.167 HD
ENDBRANCH  56  58
ENDBRANCH  55  56
ENDBRANCH  54  55
ENDBRANCH  21  54
BRANCH  18  60
HETATM   60  C35 UNL     1      -6.797   5.284   3.841  1.00  0.00     0.151 C 
BRANCH  60  61
HETATM   61  C36 UNL     1      -6.657   6.192   4.981  1.00  0.00     0.143 C 
HETATM   62  O13 UNL     1      -6.378   5.727   6.121  1.00  0.00    -0.650 OA
BRANCH  61  63
HETATM   63  O14 UNL     1      -6.814   7.567   4.870  1.00  0.00    -0.776 OA
HETATM   64  H33 UNL     1      -6.113   8.093   4.376  1.00  0.00     0.167 HD
ENDBRANCH  61  63
ENDBRANCH  60  61
ENDBRANCH  18  60
BRANCH  14  65
HETATM   65  C38 UNL     1      -7.735   6.919   1.518  1.00  0.00     0.052 C 
BRANCH  65  66
HETATM   66  C39 UNL     1      -7.664   6.360   0.128  1.00  0.00     0.115 C 
BRANCH  66  67
HETATM   67  C40 UNL     1      -7.750   7.509  -0.849  1.00  0.00     0.139 C 
HETATM   68  O15 UNL     1      -7.718   8.698  -0.437  1.00  0.00    -0.650 OA
BRANCH  67  69
HETATM   69  O16 UNL     1      -7.862   7.275  -2.191  1.00  0.00    -0.776 OA
HETATM   70  H38 UNL     1      -8.516   6.604  -2.559  1.00  0.00     0.167 HD
ENDBRANCH  67  69
ENDBRANCH  66  67
ENDBRANCH  65  66
ENDBRANCH  14  65
ENDBRANCH   6   7
ENDBRANCH   5   6
ENDBRANCH   2   5
TORSDOF 28
ENDMDL
MODEL 18
REMARK VINA RESULT:      -6.9     18.361     21.974
REMARK  28 active torsions:
REMARK  status: ('A' for Active; 'I' for Inactive)
REMARK    1  A    between atoms: C1_2  and  O2_3 
REMARK    2  A    between atoms: C1_2  and  C2_4 
REMARK    3  A    between atoms: C2_4  and  C3_5 
REMARK    4  A    between atoms: C3_5  and  C4_6 
REMARK    5  A    between atoms: C5_7  and  C6_8 
REMARK    6  A    between atoms: C6_8  and  C7_9 
REMARK    7  A    between atoms: C7_9  and  O4_11 
REMARK    8  A    between atoms: C20_28  and  C21_29 
REMARK    9  A    between atoms: C21_29  and  C22_30 
REMARK   10  A    between atoms: C22_30  and  O6_32 
REMARK   11  A    between atoms: C23_33  and  C24_34 
REMARK   12  A    between atoms: C24_34  and  C25_35 
REMARK   13  A    between atoms: C25_35  and  C26_36 
REMARK   14  A    between atoms: C26_36  and  O8_38 
REMARK   15  A    between atoms: C27_39  and  C28_40 
REMARK   16  A    between atoms: C28_40  and  C29_41 
REMARK   17  A    between atoms: C29_41  and  O10_43 
REMARK   18  A    between atoms: C30_44  and  C31_45 
REMARK   19  A    between atoms: C31_45  and  C32_46 
REMARK   20  A    between atoms: C32_46  and  C33_47 
REMARK   21  A    between atoms: C33_47  and  O12_49 
REMARK   22  A    between atoms: C34_50  and  C35_51 
REMARK   23  A    between atoms: C35_51  and  C36_52 
REMARK   24  A    between atoms: C36_52  and  O14_54 
REMARK   25  A    between atoms: C37_55  and  C38_56 
REMARK   26  A    between atoms: C38_56  and  C39_57 
REMARK   27  A    between atoms: C39_57  and  C40_58 
REMARK   28  A    between atoms: C40_58  and  O16_60 
ROOT
HETATM    1  O1  UNL     1     -15.066  11.398   1.499  1.00  0.00    -0.650 OA
HETATM    2  C1  UNL     1     -16.039  10.770   1.065  1.00  0.00     0.139 C 
ENDROOT
BRANCH   2   3
HETATM    3  O2  UNL     1     -17.308  11.192   1.467  1.00  0.00    -0.776 OA
HETATM    4  H1  UNL     1     -18.135  11.056   0.896  1.00  0.00     0.167 HD
ENDBRANCH   2   3
BRANCH   2   5
HETATM    5  C2  UNL     1     -15.913   9.615   0.153  1.00  0.00     0.115 C 
BRANCH   5   6
HETATM    6  C3  UNL     1     -16.689   8.419   0.568  1.00  0.00     0.052 C 
BRANCH   6   7
HETATM    7  C4  UNL     1     -16.089   7.792   1.776  1.00  0.00    -0.020 A 
HETATM    8  C5  UNL     1     -16.607   7.728   3.005  1.00  0.00    -0.011 A 
HETATM    9  C8  UNL     1     -15.691   7.029   3.874  1.00  0.00     0.067 A 
HETATM   10  C9  UNL     1     -15.708   6.695   5.246  1.00  0.00     0.062 C 
HETATM   11  N4  UNL     1     -14.637   6.686   3.140  1.00  0.00    -0.248 NA
HETATM   12  C10 UNL     1     -14.647   6.123   5.946  1.00  0.00     0.041 A 
HETATM   13  N1  UNL     1     -13.314   6.307   5.896  1.00  0.00    -0.355 N 
HETATM   14  C37 UNL     1     -14.946   5.103   6.878  1.00  0.00    -0.022 A 
HETATM   15  C11 UNL     1     -12.757   5.437   6.758  1.00  0.00     0.042 A 
HETATM   16  H10 UNL     1     -12.775   7.065   5.280  1.00  0.00     0.166 HD
HETATM   17  C12 UNL     1     -11.434   5.143   7.096  1.00  0.00     0.062 C 
HETATM   18  C34 UNL     1     -13.773   4.679   7.381  1.00  0.00    -0.013 A 
HETATM   19  C13 UNL     1     -10.370   5.040   6.181  1.00  0.00     0.066 A 
HETATM   20  N2  UNL     1     -10.621   5.225   4.877  1.00  0.00    -0.248 NA
HETATM   21  C30 UNL     1      -8.960   4.772   6.319  1.00  0.00    -0.020 A 
HETATM   22  C14 UNL     1      -9.479   5.097   4.177  1.00  0.00     0.067 A 
HETATM   23  C15 UNL     1      -9.517   5.261   2.786  1.00  0.00     0.062 C 
HETATM   24  C27 UNL     1      -8.392   4.801   5.102  1.00  0.00    -0.011 A 
HETATM   25  C16 UNL     1     -10.552   5.846   2.023  1.00  0.00     0.041 A 
HETATM   26  N3  UNL     1     -11.880   5.765   2.163  1.00  0.00    -0.355 N 
HETATM   27  C23 UNL     1     -10.213   6.708   0.951  1.00  0.00    -0.022 A 
HETATM   28  C17 UNL     1     -12.437   6.544   1.228  1.00  0.00     0.042 A 
HETATM   29  H13 UNL     1     -12.436   5.135   2.909  1.00  0.00     0.166 HD
HETATM   30  C18 UNL     1     -13.786   6.829   0.944  1.00  0.00     0.062 C 
HETATM   31  C20 UNL     1     -11.422   7.148   0.456  1.00  0.00    -0.013 A 
HETATM   32  C19 UNL     1     -14.803   7.111   1.864  1.00  0.00     0.066 A 
BRANCH   8  33
HETATM   33  C6  UNL     1     -17.931   8.296   3.382  1.00  0.00     0.151 C 
BRANCH  33  34
HETATM   34  C7  UNL     1     -19.045   7.334   3.216  1.00  0.00     0.143 C 
HETATM   35  O3  UNL     1     -19.367   6.602   4.171  1.00  0.00    -0.650 OA
BRANCH  34  36
HETATM   36  O4  UNL     1     -19.689   7.284   1.999  1.00  0.00    -0.776 OA
HETATM   37  H8  UNL     1     -20.470   6.637   1.888  1.00  0.00     0.167 HD
ENDBRANCH  34  36
ENDBRANCH  33  34
ENDBRANCH   8  33
BRANCH  31  38
HETATM   38  C21 UNL     1     -11.593   8.127  -0.688  1.00  0.00     0.151 C 
BRANCH  38  39
HETATM   39  C22 UNL     1     -11.485   9.488  -0.113  1.00  0.00     0.143 C 
HETATM   40  O5  UNL     1     -10.462  10.168  -0.342  1.00  0.00    -0.650 OA
BRANCH  39  41
HETATM   41  O6  UNL     1     -12.473  10.055   0.677  1.00  0.00    -0.776 OA
HETATM   42  H17 UNL     1     -13.385   9.599   0.804  1.00  0.00     0.167 HD
ENDBRANCH  39  41
ENDBRANCH  38  39
ENDBRANCH  31  38
BRANCH  27  43
HETATM   43  C24 UNL     1      -8.879   7.099   0.422  1.00  0.00     0.052 C 
BRANCH  43  44
HETATM   44  C25 UNL     1      -8.461   6.258  -0.709  1.00  0.00     0.115 C 
BRANCH  44  45
HETATM   45  C26 UNL     1      -7.910   4.931  -0.453  1.00  0.00     0.139 C 
HETATM   46  O7  UNL     1      -8.446   3.828  -0.442  1.00  0.00    -0.650 OA
BRANCH  45  47
HETATM   47  O8  UNL     1      -6.516   4.921  -0.168  1.00  0.00    -0.776 OA
HETATM   48  H22 UNL     1      -5.928   5.701  -0.331  1.00  0.00     0.167 HD
ENDBRANCH  45  47
ENDBRANCH  44  45
ENDBRANCH  43  44
ENDBRANCH  27  43
BRANCH  24  49
HETATM   49  C28 UNL     1      -6.953   4.586   4.753  1.00  0.00     0.151 C 
BRANCH  49  50
HETATM   50  C29 UNL     1      -6.250   5.882   4.582  1.00  0.00     0.143 C 
HETATM   51  O9  UNL     1      -5.589   6.337   5.542  1.00  0.00    -0.650 OA
BRANCH  50  52
HETATM   52  O10 UNL     1      -6.290   6.616   3.410  1.00  0.00    -0.776 OA
HETATM   53  H25 UNL     1      -6.092   6.187   2.496  1.00  0.00     0.167 HD
ENDBRANCH  50  52
ENDBRANCH  49  50
ENDBRANCH  24  49
BRANCH  21  54
HETATM   54  C31 UNL     1      -8.216   4.522   7.586  1.00  0.00     0.052 C 
BRANCH  54  55
HETATM   55  C32 UNL     1      -7.805   3.108   7.794  1.00  0.00     0.115 C 
BRANCH  55  56
HETATM   56  C33 UNL     1      -9.065   2.349   8.132  1.00  0.00     0.139 C 
HETATM   57  O11 UNL     1      -9.404   1.334   7.475  1.00  0.00    -0.650 OA
BRANCH  56  58
HETATM   58  O12 UNL     1      -9.895   2.739   9.175  1.00  0.00    -0.776 OA
HETATM   59  H30 UNL     1     -10.576   2.038   9.480  1.00  0.00     0.167 HD
ENDBRANCH  56  58
ENDBRANCH  55  56
ENDBRANCH  54  55
ENDBRANCH  21  54
BRANCH  18  60
HETATM   60  C35 UNL     1     -13.669   3.606   8.424  1.00  0.00     0.151 C 
BRANCH  60  61
HETATM   61  C36 UNL     1     -13.481   4.265   9.718  1.00  0.00     0.143 C 
HETATM   62  O13 UNL     1     -12.845   3.673  10.635  1.00  0.00    -0.650 OA
BRANCH  61  63
HETATM   63  O14 UNL     1     -13.974   5.533   9.995  1.00  0.00    -0.776 OA
HETATM   64  H33 UNL     1     -14.914   5.617  10.344  1.00  0.00     0.167 HD
ENDBRANCH  61  63
ENDBRANCH  60  61
ENDBRANCH  18  60
BRANCH  14  65
HETATM   65  C38 UNL     1     -16.276   4.553   7.304  1.00  0.00     0.052 C 
BRANCH  65  66
HETATM   66  C39 UNL     1     -16.826   3.677   6.217  1.00  0.00     0.115 C 
BRANCH  66  67
HETATM   67  C40 UNL     1     -17.372   2.420   6.854  1.00  0.00     0.139 C 
HETATM   68  O15 UNL     1     -18.150   2.493   7.840  1.00  0.00    -0.650 OA
BRANCH  67  69
HETATM   69  O16 UNL     1     -17.029   1.189   6.369  1.00  0.00    -0.776 OA
HETATM   70  H38 UNL     1     -16.929   0.390   6.973  1.00  0.00     0.167 HD
ENDBRANCH  67  69
ENDBRANCH  66  67
ENDBRANCH  65  66
ENDBRANCH  14  65
ENDBRANCH   6   7
ENDBRANCH   5   6
ENDBRANCH   2   5
TORSDOF 28
ENDMDL
MODEL 19
REMARK VINA RESULT:      -6.9     19.581     23.008
REMARK  28 active torsions:
REMARK  status: ('A' for Active; 'I' for Inactive)
REMARK    1  A    between atoms: C1_2  and  O2_3 
REMARK    2  A    between atoms: C1_2  and  C2_4 
REMARK    3  A    between atoms: C2_4  and  C3_5 
REMARK    4  A    between atoms: C3_5  and  C4_6 
REMARK    5  A    between atoms: C5_7  and  C6_8 
REMARK    6  A    between atoms: C6_8  and  C7_9 
REMARK    7  A    between atoms: C7_9  and  O4_11 
REMARK    8  A    between atoms: C20_28  and  C21_29 
REMARK    9  A    between atoms: C21_29  and  C22_30 
REMARK   10  A    between atoms: C22_30  and  O6_32 
REMARK   11  A    between atoms: C23_33  and  C24_34 
REMARK   12  A    between atoms: C24_34  and  C25_35 
REMARK   13  A    between atoms: C25_35  and  C26_36 
REMARK   14  A    between atoms: C26_36  and  O8_38 
REMARK   15  A    between atoms: C27_39  and  C28_40 
REMARK   16  A    between atoms: C28_40  and  C29_41 
REMARK   17  A    between atoms: C29_41  and  O10_43 
REMARK   18  A    between atoms: C30_44  and  C31_45 
REMARK   19  A    between atoms: C31_45  and  C32_46 
REMARK   20  A    between atoms: C32_46  and  C33_47 
REMARK   21  A    between atoms: C33_47  and  O12_49 
REMARK   22  A    between atoms: C34_50  and  C35_51 
REMARK   23  A    between atoms: C35_51  and  C36_52 
REMARK   24  A    between atoms: C36_52  and  O14_54 
REMARK   25  A    between atoms: C37_55  and  C38_56 
REMARK   26  A    between atoms: C38_56  and  C39_57 
REMARK   27  A    between atoms: C39_57  and  C40_58 
REMARK   28  A    between atoms: C40_58  and  O16_60 
ROOT
HETATM    1  O1  UNL     1      -7.384   9.716  -1.345  1.00  0.00    -0.650 OA
HETATM    2  C1  UNL     1      -8.365   9.142  -1.832  1.00  0.00     0.139 C 
ENDROOT
BRANCH   2   3
HETATM    3  O2  UNL     1      -8.167   8.417  -3.010  1.00  0.00    -0.776 OA
HETATM    4  H1  UNL     1      -7.246   8.254  -3.402  1.00  0.00     0.167 HD
ENDBRANCH   2   3
BRANCH   2   5
HETATM    5  C2  UNL     1      -9.711   9.190  -1.227  1.00  0.00     0.115 C 
BRANCH   5   6
HETATM    6  C3  UNL     1     -10.405   7.879  -1.170  1.00  0.00     0.052 C 
BRANCH   6   7
HETATM    7  C4  UNL     1     -10.146   7.200   0.128  1.00  0.00    -0.020 A 
HETATM    8  C5  UNL     1      -9.194   6.306   0.407  1.00  0.00    -0.011 A 
HETATM    9  C8  UNL     1      -9.303   5.907   1.790  1.00  0.00     0.067 A 
HETATM   10  C9  UNL     1      -8.592   4.997   2.602  1.00  0.00     0.062 C 
HETATM   11  N4  UNL     1     -10.325   6.577   2.313  1.00  0.00    -0.248 NA
HETATM   12  C10 UNL     1      -8.940   4.644   3.905  1.00  0.00     0.041 A 
HETATM   13  N1  UNL     1     -10.124   4.424   4.507  1.00  0.00    -0.355 N 
HETATM   14  C37 UNL     1      -7.900   4.519   4.854  1.00  0.00    -0.022 A 
HETATM   15  C11 UNL     1      -9.873   4.170   5.804  1.00  0.00     0.042 A 
HETATM   16  H10 UNL     1     -11.125   4.419   4.013  1.00  0.00     0.166 HD
HETATM   17  C12 UNL     1     -10.696   3.917   6.904  1.00  0.00     0.062 C 
HETATM   18  C34 UNL     1      -8.480   4.226   6.032  1.00  0.00    -0.013 A 
HETATM   19  C13 UNL     1     -11.898   4.593   7.187  1.00  0.00     0.066 A 
HETATM   20  N2  UNL     1     -12.302   5.565   6.356  1.00  0.00    -0.248 NA
HETATM   21  C30 UNL     1     -12.885   4.475   8.232  1.00  0.00    -0.020 A 
HETATM   22  C14 UNL     1     -13.469   6.073   6.792  1.00  0.00     0.067 A 
HETATM   23  C15 UNL     1     -14.073   7.104   6.060  1.00  0.00     0.062 C 
HETATM   24  C27 UNL     1     -13.858   5.374   8.012  1.00  0.00    -0.011 A 
HETATM   25  C16 UNL     1     -13.778   7.497   4.736  1.00  0.00     0.041 A 
HETATM   26  N3  UNL     1     -12.602   7.584   4.103  1.00  0.00    -0.355 N 
HETATM   27  C23 UNL     1     -14.843   7.822   3.861  1.00  0.00    -0.022 A 
HETATM   28  C17 UNL     1     -12.847   7.948   2.838  1.00  0.00     0.042 A 
HETATM   29  H13 UNL     1     -11.587   7.412   4.552  1.00  0.00     0.166 HD
HETATM   30  C18 UNL     1     -11.977   8.166   1.753  1.00  0.00     0.062 C 
HETATM   31  C20 UNL     1     -14.237   8.103   2.656  1.00  0.00    -0.013 A 
HETATM   32  C19 UNL     1     -10.884   7.378   1.373  1.00  0.00     0.066 A 
BRANCH   8  33
HETATM   33  C6  UNL     1      -8.189   5.824  -0.581  1.00  0.00     0.151 C 
BRANCH  33  34
HETATM   34  C7  UNL     1      -6.791   6.017  -0.129  1.00  0.00     0.143 C 
HETATM   35  O3  UNL     1      -6.041   5.027  -0.028  1.00  0.00    -0.650 OA
BRANCH  34  36
HETATM   36  O4  UNL     1      -6.369   7.294   0.165  1.00  0.00    -0.776 OA
HETATM   37  H8  UNL     1      -5.379   7.449   0.353  1.00  0.00     0.167 HD
ENDBRANCH  34  36
ENDBRANCH  33  34
ENDBRANCH   8  33
BRANCH  31  38
HETATM   38  C21 UNL     1     -14.964   8.477   1.379  1.00  0.00     0.151 C 
BRANCH  38  39
HETATM   39  C22 UNL     1     -15.409   7.212   0.749  1.00  0.00     0.143 C 
HETATM   40  O5  UNL     1     -16.633   6.989   0.628  1.00  0.00    -0.650 OA
BRANCH  39  41
HETATM   41  O6  UNL     1     -14.529   6.249   0.279  1.00  0.00    -0.776 OA
HETATM   42  H17 UNL     1     -13.520   6.309   0.468  1.00  0.00     0.167 HD
ENDBRANCH  39  41
ENDBRANCH  38  39
ENDBRANCH  31  38
BRANCH  27  43
HETATM   43  C24 UNL     1     -16.308   7.868   4.113  1.00  0.00     0.052 C 
BRANCH  43  44
HETATM   44  C25 UNL     1     -16.915   6.529   4.121  1.00  0.00     0.115 C 
BRANCH  44  45
HETATM   45  C26 UNL     1     -18.251   6.349   4.680  1.00  0.00     0.139 C 
HETATM   46  O7  UNL     1     -18.651   5.627   5.587  1.00  0.00    -0.650 OA
BRANCH  45  47
HETATM   47  O8  UNL     1     -19.256   7.146   4.063  1.00  0.00    -0.776 OA
HETATM   48  H22 UNL     1     -20.199   7.151   4.365  1.00  0.00     0.167 HD
ENDBRANCH  45  47
ENDBRANCH  44  45
ENDBRANCH  43  44
ENDBRANCH  27  43
BRANCH  24  49
HETATM   49  C28 UNL     1     -15.090   5.616   8.826  1.00  0.00     0.151 C 
BRANCH  49  50
HETATM   50  C29 UNL     1     -16.277   4.993   8.190  1.00  0.00     0.143 C 
HETATM   51  O9  UNL     1     -16.112   3.970   7.488  1.00  0.00    -0.650 OA
BRANCH  50  52
HETATM   52  O10 UNL     1     -17.560   5.487   8.334  1.00  0.00    -0.776 OA
HETATM   53  H25 UNL     1     -18.211   5.542   7.540  1.00  0.00     0.167 HD
ENDBRANCH  50  52
ENDBRANCH  49  50
ENDBRANCH  24  49
BRANCH  21  54
HETATM   54  C31 UNL     1     -12.873   3.514   9.371  1.00  0.00     0.052 C 
BRANCH  54  55
HETATM   55  C32 UNL     1     -12.433   4.096  10.667  1.00  0.00     0.115 C 
BRANCH  55  56
HETATM   56  C33 UNL     1     -10.968   3.760  10.803  1.00  0.00     0.139 C 
HETATM   57  O11 UNL     1     -10.213   4.447  11.534  1.00  0.00    -0.650 OA
BRANCH  56  58
HETATM   58  O12 UNL     1     -10.399   2.686  10.131  1.00  0.00    -0.776 OA
HETATM   59  H30 UNL     1     -10.716   2.553   9.166  1.00  0.00     0.167 HD
ENDBRANCH  56  58
ENDBRANCH  55  56
ENDBRANCH  54  55
ENDBRANCH  21  54
BRANCH  18  60
HETATM   60  C35 UNL     1      -7.702   3.996   7.293  1.00  0.00     0.151 C 
BRANCH  60  61
HETATM   61  C36 UNL     1      -7.685   2.553   7.546  1.00  0.00     0.143 C 
HETATM   62  O13 UNL     1      -7.977   2.115   8.694  1.00  0.00    -0.650 OA
BRANCH  61  63
HETATM   63  O14 UNL     1      -7.360   1.623   6.568  1.00  0.00    -0.776 OA
HETATM   64  H33 UNL     1      -7.112   0.691   6.855  1.00  0.00     0.167 HD
ENDBRANCH  61  63
ENDBRANCH  60  61
ENDBRANCH  18  60
BRANCH  14  65
HETATM   65  C38 UNL     1      -6.415   4.647   4.673  1.00  0.00     0.052 C 
BRANCH  65  66
HETATM   66  C39 UNL     1      -6.032   6.098   4.704  1.00  0.00     0.115 C 
BRANCH  66  67
HETATM   67  C40 UNL     1      -5.168   6.384   3.498  1.00  0.00     0.139 C 
HETATM   68  O15 UNL     1      -4.778   7.557   3.259  1.00  0.00    -0.650 OA
BRANCH  67  69
HETATM   69  O16 UNL     1      -4.798   5.375   2.652  1.00  0.00    -0.776 OA
HETATM   70  H38 UNL     1      -4.739   5.514   1.657  1.00  0.00     0.167 HD
ENDBRANCH  67  69
ENDBRANCH  66  67
ENDBRANCH  65  66
ENDBRANCH  14  65
ENDBRANCH   6   7
ENDBRANCH   5   6
ENDBRANCH   2   5
TORSDOF 28
ENDMDL
MODEL 20
REMARK VINA RESULT:      -6.8     26.248     28.698
REMARK  28 active torsions:
REMARK  status: ('A' for Active; 'I' for Inactive)
REMARK    1  A    between atoms: C1_2  and  O2_3 
REMARK    2  A    between atoms: C1_2  and  C2_4 
REMARK    3  A    between atoms: C2_4  and  C3_5 
REMARK    4  A    between atoms: C3_5  and  C4_6 
REMARK    5  A    between atoms: C5_7  and  C6_8 
REMARK    6  A    between atoms: C6_8  and  C7_9 
REMARK    7  A    between atoms: C7_9  and  O4_11 
REMARK    8  A    between atoms: C20_28  and  C21_29 
REMARK    9  A    between atoms: C21_29  and  C22_30 
REMARK   10  A    between atoms: C22_30  and  O6_32 
REMARK   11  A    between atoms: C23_33  and  C24_34 
REMARK   12  A    between atoms: C24_34  and  C25_35 
REMARK   13  A    between atoms: C25_35  and  C26_36 
REMARK   14  A    between atoms: C26_36  and  O8_38 
REMARK   15  A    between atoms: C27_39  and  C28_40 
REMARK   16  A    between atoms: C28_40  and  C29_41 
REMARK   17  A    between atoms: C29_41  and  O10_43 
REMARK   18  A    between atoms: C30_44  and  C31_45 
REMARK   19  A    between atoms: C31_45  and  C32_46 
REMARK   20  A    between atoms: C32_46  and  C33_47 
REMARK   21  A    between atoms: C33_47  and  O12_49 
REMARK   22  A    between atoms: C34_50  and  C35_51 
REMARK   23  A    between atoms: C35_51  and  C36_52 
REMARK   24  A    between atoms: C36_52  and  O14_54 
REMARK   25  A    between atoms: C37_55  and  C38_56 
REMARK   26  A    between atoms: C38_56  and  C39_57 
REMARK   27  A    between atoms: C39_57  and  C40_58 
REMARK   28  A    between atoms: C40_58  and  O16_60 
ROOT
HETATM    1  O1  UNL     1      -5.574   4.176  13.406  1.00  0.00    -0.650 OA
HETATM    2  C1  UNL     1      -4.675   3.403  13.054  1.00  0.00     0.139 C 
ENDROOT
BRANCH   2   3
HETATM    3  O2  UNL     1      -5.014   2.058  12.885  1.00  0.00    -0.776 OA
HETATM    4  H1  UNL     1      -4.910   1.372  13.624  1.00  0.00     0.167 HD
ENDBRANCH   2   3
BRANCH   2   5
HETATM    5  C2  UNL     1      -3.286   3.838  12.810  1.00  0.00     0.115 C 
BRANCH   5   6
HETATM    6  C3  UNL     1      -2.561   3.035  11.793  1.00  0.00     0.052 C 
BRANCH   6   7
HETATM    7  C4  UNL     1      -2.680   3.656  10.446  1.00  0.00    -0.020 A 
HETATM    8  C5  UNL     1      -1.935   4.637   9.931  1.00  0.00    -0.011 A 
HETATM    9  C8  UNL     1      -2.392   4.932   8.593  1.00  0.00     0.067 A 
HETATM   10  C9  UNL     1      -1.999   5.866   7.611  1.00  0.00     0.062 C 
HETATM   11  N4  UNL     1      -3.407   4.113   8.335  1.00  0.00    -0.248 NA
HETATM   12  C10 UNL     1      -2.663   6.091   6.407  1.00  0.00     0.041 A 
HETATM   13  N1  UNL     1      -3.968   6.130   6.076  1.00  0.00    -0.355 N 
HETATM   14  C37 UNL     1      -1.879   6.278   5.245  1.00  0.00    -0.022 A 
HETATM   15  C11 UNL     1      -4.039   6.329   4.747  1.00  0.00     0.042 A 
HETATM   16  H10 UNL     1      -4.830   6.048   6.780  1.00  0.00     0.166 HD
HETATM   17  C12 UNL     1      -5.107   6.412   3.850  1.00  0.00     0.062 C 
HETATM   18  C34 UNL     1      -2.734   6.425   4.217  1.00  0.00    -0.013 A 
HETATM   19  C13 UNL     1      -6.243   5.581   3.867  1.00  0.00     0.066 A 
HETATM   20  N2  UNL     1      -6.327   4.623   4.801  1.00  0.00    -0.248 NA
HETATM   21  C30 UNL     1      -7.439   5.514   3.065  1.00  0.00    -0.020 A 
HETATM   22  C14 UNL     1      -7.485   3.953   4.655  1.00  0.00     0.067 A 
HETATM   23  C15 UNL     1      -7.777   2.907   5.540  1.00  0.00     0.062 C 
HETATM   24  C27 UNL     1      -8.217   4.521   3.529  1.00  0.00    -0.011 A 
HETATM   25  C16 UNL     1      -7.154   2.637   6.778  1.00  0.00     0.041 A 
HETATM   26  N3  UNL     1      -5.868   2.731   7.136  1.00  0.00    -0.355 N 
HETATM   27  C23 UNL     1      -7.953   2.244   7.880  1.00  0.00    -0.022 A 
HETATM   28  C17 UNL     1      -5.783   2.421   8.435  1.00  0.00     0.042 A 
HETATM   29  H13 UNL     1      -5.005   2.993   6.466  1.00  0.00     0.166 HD
HETATM   30  C18 UNL     1      -4.678   2.377   9.306  1.00  0.00     0.062 C 
HETATM   31  C20 UNL     1      -7.069   2.114   8.929  1.00  0.00    -0.013 A 
HETATM   32  C19 UNL     1      -3.641   3.313   9.404  1.00  0.00     0.066 A 
BRANCH   8  33
HETATM   33  C6  UNL     1      -0.811   5.297  10.651  1.00  0.00     0.151 C 
BRANCH  33  34
HETATM   34  C7  UNL     1       0.504   4.677  10.368  1.00  0.00     0.143 C 
HETATM   35  O3  UNL     1       1.081   4.032  11.266  1.00  0.00    -0.650 OA
BRANCH  34  36
HETATM   36  O4  UNL     1       1.047   4.839   9.113  1.00  0.00    -0.776 OA
HETATM   37  H8  UNL     1       1.956   5.293   9.029  1.00  0.00     0.167 HD
ENDBRANCH  34  36
ENDBRANCH  33  34
ENDBRANCH   8  33
BRANCH  31  38
HETATM   38  C21 UNL     1      -7.447   1.739  10.348  1.00  0.00     0.151 C 
BRANCH  38  39
HETATM   39  C22 UNL     1      -7.867   2.987  11.027  1.00  0.00     0.143 C 
HETATM   40  O5  UNL     1      -8.813   2.948  11.844  1.00  0.00    -0.650 OA
BRANCH  39  41
HETATM   41  O6  UNL     1      -7.258   4.212  10.804  1.00  0.00    -0.776 OA
HETATM   42  H17 UNL     1      -7.302   4.672   9.886  1.00  0.00     0.167 HD
ENDBRANCH  39  41
ENDBRANCH  38  39
ENDBRANCH  31  38
BRANCH  27  43
HETATM   43  C24 UNL     1      -9.419   2.008   7.963  1.00  0.00     0.052 C 
BRANCH  43  44
HETATM   44  C25 UNL     1     -10.139   3.165   8.515  1.00  0.00     0.115 C 
BRANCH  44  45
HETATM   45  C26 UNL     1      -9.768   4.512   8.090  1.00  0.00     0.139 C 
HETATM   46  O7  UNL     1      -9.080   5.366   8.638  1.00  0.00    -0.650 OA
BRANCH  45  47
HETATM   47  O8  UNL     1     -10.300   4.892   6.825  1.00  0.00    -0.776 OA
HETATM   48  H22 UNL     1     -11.177   4.576   6.493  1.00  0.00     0.167 HD
ENDBRANCH  45  47
ENDBRANCH  44  45
ENDBRANCH  43  44
ENDBRANCH  27  43
BRANCH  24  49
HETATM   49  C28 UNL     1      -9.554   4.084   3.018  1.00  0.00     0.151 C 
BRANCH  49  50
HETATM   50  C29 UNL     1      -9.414   2.957   2.064  1.00  0.00     0.143 C 
HETATM   51  O9  UNL     1      -9.424   3.205   0.837  1.00  0.00    -0.650 OA
BRANCH  50  52
HETATM   52  O10 UNL     1      -9.271   1.640   2.463  1.00  0.00    -0.776 OA
HETATM   53  H25 UNL     1      -9.657   1.300   3.353  1.00  0.00     0.167 HD
ENDBRANCH  50  52
ENDBRANCH  49  50
ENDBRANCH  24  49
BRANCH  21  54
HETATM   54  C31 UNL     1      -7.799   6.395   1.918  1.00  0.00     0.052 C 
BRANCH  54  55
HETATM   55  C32 UNL     1      -6.702   6.616   0.939  1.00  0.00     0.115 C 
BRANCH  55  56
HETATM   56  C33 UNL     1      -6.519   5.308   0.210  1.00  0.00     0.139 C 
HETATM   57  O11 UNL     1      -5.403   4.731   0.189  1.00  0.00    -0.650 OA
BRANCH  56  58
HETATM   58  O12 UNL     1      -7.566   4.694  -0.463  1.00  0.00    -0.776 OA
HETATM   59  H30 UNL     1      -8.486   5.124  -0.332  1.00  0.00     0.167 HD
ENDBRANCH  56  58
ENDBRANCH  55  56
ENDBRANCH  54  55
ENDBRANCH  21  54
BRANCH  18  60
HETATM   60  C35 UNL     1      -2.284   6.664   2.806  1.00  0.00     0.151 C 
BRANCH  60  61
HETATM   61  C36 UNL     1      -1.868   5.375   2.250  1.00  0.00     0.143 C 
HETATM   62  O13 UNL     1      -2.704   4.432   2.163  1.00  0.00    -0.650 OA
BRANCH  61  63
HETATM   63  O14 UNL     1      -0.577   5.132   1.802  1.00  0.00    -0.776 OA
HETATM   64  H33 UNL     1      -0.046   4.397   2.240  1.00  0.00     0.167 HD
ENDBRANCH  61  63
ENDBRANCH  60  61
ENDBRANCH  18  60
BRANCH  14  65
HETATM   65  C38 UNL     1      -0.386   6.339   5.095  1.00  0.00     0.052 C 
BRANCH  65  66
HETATM   66  C39 UNL     1       0.071   7.762   5.228  1.00  0.00     0.115 C 
BRANCH  66  67
HETATM   67  C40 UNL     1       0.726   8.170   3.930  1.00  0.00     0.139 C 
HETATM   68  O15 UNL     1       0.800   9.385   3.610  1.00  0.00    -0.650 OA
BRANCH  67  69
HETATM   69  O16 UNL     1       1.247   7.228   3.087  1.00  0.00    -0.776 OA
HETATM   70  H38 UNL     1       1.927   6.555   3.400  1.00  0.00     0.167 HD
ENDBRANCH  67  69
ENDBRANCH  66  67
ENDBRANCH  65  66
ENDBRANCH  14  65
ENDBRANCH   6   7
ENDBRANCH   5   6
ENDBRANCH   2   5
TORSDOF 28
ENDMDL
