MODEL 1
REMARK VINA RESULT:      -8.1      0.000      0.000
REMARK  16 active torsions:
REMARK  status: ('A' for Active; 'I' for Inactive)
REMARK    1  A    between atoms: C_6  and  C_7 
REMARK    2  A    between atoms: C_7  and  C_8 
REMARK    3  A    between atoms: C_8  and  C_9 
REMARK    4  A    between atoms: C_9  and  O_11 
REMARK    5  A    between atoms: C_16  and  C_17 
REMARK    6  A    between atoms: C_17  and  C_18 
REMARK    7  A    between atoms: C_18  and  C_19 
REMARK    8  A    between atoms: C_19  and  O_21 
REMARK    9  A    between atoms: C_28  and  C_29 
REMARK   10  A    between atoms: C_29  and  C_30 
REMARK   11  A    between atoms: C_30  and  C_31 
REMARK   12  A    between atoms: C_31  and  O_33 
REMARK   13  A    between atoms: C_42  and  C_43 
REMARK   14  A    between atoms: C_43  and  C_44 
REMARK   15  A    between atoms: C_44  and  C_45 
REMARK   16  A    between atoms: C_45  and  O_47 
ROOT
HETATM    1  C   UNK     0     -33.561  14.039   3.095  0.00  0.00     0.051 C 
HETATM    2  C   UNK     0     -32.527  13.626   2.067  0.00  0.00    -0.031 A 
HETATM    3  C   UNK     0     -31.841  12.428   1.942  0.00  0.00     0.021 A 
HETATM    4  N   UNK     0     -30.990  12.515   0.892  0.00  0.00    -0.361 N 
HETATM    5  C   UNK     0     -31.126  13.738   0.340  0.00  0.00     0.022 A 
HETATM    6  C   UNK     0     -32.078  14.460   1.052  0.00  0.00    -0.027 A 
HETATM    7  C   UNK     0     -30.488  14.303  -0.891  0.00  0.00     0.115 C 
HETATM    8  C   UNK     0     -30.408  13.386  -2.099  0.00  0.00     0.021 A 
HETATM    9  N   UNK     0     -31.293  12.464  -2.509  0.00  0.00    -0.361 N 
HETATM   10  C   UNK     0     -30.767  11.823  -3.574  0.00  0.00     0.022 A 
HETATM   11  C   UNK     0     -29.514  12.354  -3.865  0.00  0.00    -0.027 A 
HETATM   12  C   UNK     0     -29.282  13.339  -2.939  0.00  0.00    -0.031 A 
HETATM   13  C   UNK     0     -28.039  14.198  -2.869  0.00  0.00     0.051 C 
HETATM   14  C   UNK     0     -31.399  10.655  -4.326  0.00  0.00     0.115 C 
HETATM   15  C   UNK     0     -31.632   9.423  -3.465  0.00  0.00     0.021 A 
HETATM   16  N   UNK     0     -32.372   9.333  -2.344  0.00  0.00    -0.361 N 
HETATM   17  C   UNK     0     -32.265   8.098  -1.847  0.00  0.00     0.022 A 
HETATM   18  C   UNK     0     -31.424   7.346  -2.690  0.00  0.00    -0.027 A 
HETATM   19  C   UNK     0     -31.035   8.187  -3.700  0.00  0.00    -0.031 A 
HETATM   20  C   UNK     0     -30.144   7.764  -4.854  0.00  0.00     0.051 C 
HETATM   21  C   UNK     0     -32.837   7.509  -0.577  0.00  0.00     0.115 C 
HETATM   22  C   UNK     0     -32.963   8.422   0.620  0.00  0.00     0.022 A 
HETATM   23  N   UNK     0     -32.100   9.352   1.049  0.00  0.00    -0.361 N 
HETATM   24  C   UNK     0     -32.677  10.030   2.062  0.00  0.00     0.021 A 
HETATM   25  C   UNK     0     -33.938   9.517   2.298  0.00  0.00    -0.031 A 
HETATM   26  C   UNK     0     -34.949   9.917   3.353  0.00  0.00     0.051 C 
HETATM   27  C   UNK     0     -34.144   8.486   1.387  0.00  0.00    -0.027 A 
HETATM   28  C   UNK     0     -32.127  11.234   2.808  0.00  0.00     0.115 C 
HETATM   29  H   UNK     0     -30.272  11.725   0.573  0.00  0.00     0.165 HD
HETATM   30  H   UNK     0     -32.311  12.296  -2.079  0.00  0.00     0.165 HD
HETATM   31  H   UNK     0     -33.021  10.142  -1.919  0.00  0.00     0.165 HD
HETATM   32  H   UNK     0     -31.058   9.511   0.669  0.00  0.00     0.165 HD
ENDROOT
BRANCH   6  33
HETATM   33  C   UNK     0     -32.584  15.865   0.845  0.00  0.00     0.051 C 
BRANCH  33  34
HETATM   34  C   UNK     0     -31.617  16.872   1.422  0.00  0.00     0.114 C 
BRANCH  34  35
HETATM   35  C   UNK     0     -31.473  17.974   0.427  0.00  0.00     0.139 C 
HETATM   36  O   UNK     0     -32.038  17.890  -0.702  0.00  0.00    -0.650 OA
BRANCH  35  37
HETATM   37  O   UNK     0     -30.733  19.122   0.682  0.00  0.00    -0.776 OA
HETATM   38  H   UNK     0     -29.853  19.093   1.173  0.00  0.00     0.167 HD
ENDBRANCH  35  37
ENDBRANCH  34  35
ENDBRANCH  33  34
ENDBRANCH   6  33
BRANCH  27  39
HETATM   39  C   UNK     0     -35.370   7.643   1.381  0.00  0.00     0.051 C 
BRANCH  39  40
HETATM   40  C   UNK     0     -35.350   6.384   2.125  0.00  0.00     0.114 C 
BRANCH  40  41
HETATM   41  C   UNK     0     -34.117   5.713   2.471  0.00  0.00     0.139 C 
HETATM   42  O   UNK     0     -33.583   4.853   1.758  0.00  0.00    -0.650 OA
BRANCH  41  43
HETATM   43  O   UNK     0     -33.469   6.046   3.695  0.00  0.00    -0.776 OA
HETATM   44  H   UNK     0     -33.539   5.336   4.413  0.00  0.00     0.167 HD
ENDBRANCH  41  43
ENDBRANCH  40  41
ENDBRANCH  39  40
ENDBRANCH  27  39
BRANCH  11  45
HETATM   45  C   UNK     0     -28.559  11.968  -4.963  0.00  0.00     0.051 C 
BRANCH  45  46
HETATM   46  C   UNK     0     -27.696  10.806  -4.634  0.00  0.00     0.114 C 
BRANCH  46  47
HETATM   47  C   UNK     0     -26.364  11.344  -4.234  0.00  0.00     0.139 C 
HETATM   48  O   UNK     0     -25.912  12.322  -4.846  0.00  0.00    -0.650 OA
BRANCH  47  49
HETATM   49  O   UNK     0     -25.653  10.769  -3.211  0.00  0.00    -0.776 OA
HETATM   50  H   UNK     0     -24.731  11.119  -2.924  0.00  0.00     0.167 HD
ENDBRANCH  47  49
ENDBRANCH  46  47
ENDBRANCH  45  46
ENDBRANCH  11  45
BRANCH  18  51
HETATM   51  C   UNK     0     -31.029   5.898  -2.552  0.00  0.00     0.051 C 
BRANCH  51  52
HETATM   52  C   UNK     0     -32.233   5.083  -3.001  0.00  0.00     0.114 C 
BRANCH  52  53
HETATM   53  C   UNK     0     -32.120   3.668  -2.597  0.00  0.00     0.139 C 
HETATM   54  O   UNK     0     -32.959   2.842  -2.990  0.00  0.00    -0.650 OA
BRANCH  53  55
HETATM   55  O   UNK     0     -31.085   3.274  -1.785  0.00  0.00    -0.776 OA
HETATM   56  H   UNK     0     -30.171   3.025  -2.082  0.00  0.00     0.167 HD
ENDBRANCH  53  55
ENDBRANCH  52  53
ENDBRANCH  51  52
ENDBRANCH  18  51
TORSDOF 16
ENDMDL
MODEL 2
REMARK VINA RESULT:      -7.9     16.770     20.532
REMARK  16 active torsions:
REMARK  status: ('A' for Active; 'I' for Inactive)
REMARK    1  A    between atoms: C_6  and  C_7 
REMARK    2  A    between atoms: C_7  and  C_8 
REMARK    3  A    between atoms: C_8  and  C_9 
REMARK    4  A    between atoms: C_9  and  O_11 
REMARK    5  A    between atoms: C_16  and  C_17 
REMARK    6  A    between atoms: C_17  and  C_18 
REMARK    7  A    between atoms: C_18  and  C_19 
REMARK    8  A    between atoms: C_19  and  O_21 
REMARK    9  A    between atoms: C_28  and  C_29 
REMARK   10  A    between atoms: C_29  and  C_30 
REMARK   11  A    between atoms: C_30  and  C_31 
REMARK   12  A    between atoms: C_31  and  O_33 
REMARK   13  A    between atoms: C_42  and  C_43 
REMARK   14  A    between atoms: C_43  and  C_44 
REMARK   15  A    between atoms: C_44  and  C_45 
REMARK   16  A    between atoms: C_45  and  O_47 
ROOT
HETATM    1  C   UNK     0     -14.008   3.650   8.433  0.00  0.00     0.051 C 
HETATM    2  C   UNK     0     -14.259   4.802   7.481  0.00  0.00    -0.031 A 
HETATM    3  C   UNK     0     -13.362   5.714   6.948  0.00  0.00     0.021 A 
HETATM    4  N   UNK     0     -14.035   6.591   6.167  0.00  0.00    -0.361 N 
HETATM    5  C   UNK     0     -15.341   6.253   6.183  0.00  0.00     0.022 A 
HETATM    6  C   UNK     0     -15.517   5.139   6.998  0.00  0.00    -0.027 A 
HETATM    7  C   UNK     0     -16.486   6.839   5.418  0.00  0.00     0.115 C 
HETATM    8  C   UNK     0     -16.233   7.165   3.956  0.00  0.00     0.021 A 
HETATM    9  N   UNK     0     -15.474   6.502   3.071  0.00  0.00    -0.361 N 
HETATM   10  C   UNK     0     -15.466   7.203   1.917  0.00  0.00     0.022 A 
HETATM   11  C   UNK     0     -16.250   8.344   2.061  0.00  0.00    -0.027 A 
HETATM   12  C   UNK     0     -16.736   8.327   3.343  0.00  0.00    -0.031 A 
HETATM   13  C   UNK     0     -17.645   9.373   3.947  0.00  0.00     0.051 C 
HETATM   14  C   UNK     0     -14.680   6.855   0.656  0.00  0.00     0.115 C 
HETATM   15  C   UNK     0     -13.174   6.816   0.860  0.00  0.00     0.021 A 
HETATM   16  N   UNK     0     -12.481   6.044   1.718  0.00  0.00    -0.361 N 
HETATM   17  C   UNK     0     -11.186   6.359   1.643  0.00  0.00     0.022 A 
HETATM   18  C   UNK     0     -11.026   7.379   0.684  0.00  0.00    -0.027 A 
HETATM   19  C   UNK     0     -12.279   7.655   0.200  0.00  0.00    -0.031 A 
HETATM   20  C   UNK     0     -12.556   8.676  -0.888  0.00  0.00     0.051 C 
HETATM   21  C   UNK     0     -10.012   5.840   2.442  0.00  0.00     0.115 C 
HETATM   22  C   UNK     0     -10.260   5.470   3.886  0.00  0.00     0.022 A 
HETATM   23  N   UNK     0     -11.014   6.109   4.789  0.00  0.00    -0.361 N 
HETATM   24  C   UNK     0     -11.071   5.354   5.904  0.00  0.00     0.021 A 
HETATM   25  C   UNK     0     -10.326   4.205   5.719  0.00  0.00    -0.031 A 
HETATM   26  C   UNK     0     -10.055   3.076   6.692  0.00  0.00     0.051 C 
HETATM   27  C   UNK     0      -9.797   4.257   4.434  0.00  0.00    -0.027 A 
HETATM   28  C   UNK     0     -11.878   5.615   7.164  0.00  0.00     0.115 C 
HETATM   29  H   UNK     0     -13.589   7.467   5.641  0.00  0.00     0.165 HD
HETATM   30  H   UNK     0     -14.982   5.513   3.241  0.00  0.00     0.165 HD
HETATM   31  H   UNK     0     -12.908   5.227   2.356  0.00  0.00     0.165 HD
HETATM   32  H   UNK     0     -11.479   7.121   4.663  0.00  0.00     0.165 HD
ENDROOT
BRANCH   6  33
HETATM   33  C   UNK     0     -16.773   4.383   7.350  0.00  0.00     0.051 C 
BRANCH  33  34
HETATM   34  C   UNK     0     -16.897   3.132   6.512  0.00  0.00     0.114 C 
BRANCH  34  35
HETATM   35  C   UNK     0     -17.486   3.530   5.201  0.00  0.00     0.139 C 
HETATM   36  O   UNK     0     -18.723   3.777   5.107  0.00  0.00    -0.650 OA
BRANCH  35  37
HETATM   37  O   UNK     0     -16.726   3.649   4.044  0.00  0.00    -0.776 OA
HETATM   38  H   UNK     0     -16.825   4.433   3.418  0.00  0.00     0.167 HD
ENDBRANCH  35  37
ENDBRANCH  34  35
ENDBRANCH  33  34
ENDBRANCH   6  33
BRANCH  27  39
HETATM   39  C   UNK     0      -8.875   3.220   3.895  0.00  0.00     0.051 C 
BRANCH  39  40
HETATM   40  C   UNK     0      -9.372   2.325   2.851  0.00  0.00     0.114 C 
BRANCH  40  41
HETATM   41  C   UNK     0      -9.114   2.559   1.448  0.00  0.00     0.139 C 
HETATM   42  O   UNK     0      -9.461   1.780   0.550  0.00  0.00    -0.650 OA
BRANCH  41  43
HETATM   43  O   UNK     0      -8.426   3.744   1.060  0.00  0.00    -0.776 OA
HETATM   44  H   UNK     0      -7.822   4.130   1.775  0.00  0.00     0.167 HD
ENDBRANCH  41  43
ENDBRANCH  40  41
ENDBRANCH  39  40
ENDBRANCH  27  39
BRANCH  11  45
HETATM   45  C   UNK     0     -16.544   9.418   1.048  0.00  0.00     0.051 C 
BRANCH  45  46
HETATM   46  C   UNK     0     -17.657   9.087   0.121  0.00  0.00     0.114 C 
BRANCH  46  47
HETATM   47  C   UNK     0     -17.576  10.040  -1.024  0.00  0.00     0.139 C 
HETATM   48  O   UNK     0     -18.242   9.802  -2.041  0.00  0.00    -0.650 OA
BRANCH  47  49
HETATM   49  O   UNK     0     -16.780  11.155  -0.955  0.00  0.00    -0.776 OA
HETATM   50  H   UNK     0     -16.432  11.522  -0.061  0.00  0.00     0.167 HD
ENDBRANCH  47  49
ENDBRANCH  46  47
ENDBRANCH  45  46
ENDBRANCH  11  45
BRANCH  18  51
HETATM   51  C   UNK     0      -9.747   8.038   0.237  0.00  0.00     0.051 C 
BRANCH  51  52
HETATM   52  C   UNK     0      -9.149   7.131  -0.828  0.00  0.00     0.114 C 
BRANCH  52  53
HETATM   53  C   UNK     0      -7.688   6.995  -0.676  0.00  0.00     0.139 C 
HETATM   54  O   UNK     0      -7.188   5.884  -0.437  0.00  0.00    -0.650 OA
BRANCH  53  55
HETATM   55  O   UNK     0      -6.886   8.104  -0.798  0.00  0.00    -0.776 OA
HETATM   56  H   UNK     0      -7.195   9.033  -0.958  0.00  0.00     0.167 HD
ENDBRANCH  53  55
ENDBRANCH  52  53
ENDBRANCH  51  52
ENDBRANCH  18  51
TORSDOF 16
ENDMDL
MODEL 3
REMARK VINA RESULT:      -7.8     16.440     20.063
REMARK  16 active torsions:
REMARK  status: ('A' for Active; 'I' for Inactive)
REMARK    1  A    between atoms: C_6  and  C_7 
REMARK    2  A    between atoms: C_7  and  C_8 
REMARK    3  A    between atoms: C_8  and  C_9 
REMARK    4  A    between atoms: C_9  and  O_11 
REMARK    5  A    between atoms: C_16  and  C_17 
REMARK    6  A    between atoms: C_17  and  C_18 
REMARK    7  A    between atoms: C_18  and  C_19 
REMARK    8  A    between atoms: C_19  and  O_21 
REMARK    9  A    between atoms: C_28  and  C_29 
REMARK   10  A    between atoms: C_29  and  C_30 
REMARK   11  A    between atoms: C_30  and  C_31 
REMARK   12  A    between atoms: C_31  and  O_33 
REMARK   13  A    between atoms: C_42  and  C_43 
REMARK   14  A    between atoms: C_43  and  C_44 
REMARK   15  A    between atoms: C_44  and  C_45 
REMARK   16  A    between atoms: C_45  and  O_47 
ROOT
HETATM    1  C   UNK     0     -15.343   4.391   8.376  0.00  0.00     0.051 C 
HETATM    2  C   UNK     0     -15.524   5.380   7.243  0.00  0.00    -0.031 A 
HETATM    3  C   UNK     0     -14.647   6.343   6.767  0.00  0.00     0.021 A 
HETATM    4  N   UNK     0     -15.243   7.023   5.759  0.00  0.00    -0.361 N 
HETATM    5  C   UNK     0     -16.476   6.509   5.576  0.00  0.00     0.022 A 
HETATM    6  C   UNK     0     -16.686   5.481   6.490  0.00  0.00    -0.027 A 
HETATM    7  C   UNK     0     -17.500   6.838   4.534  0.00  0.00     0.115 C 
HETATM    8  C   UNK     0     -16.992   7.029   3.116  0.00  0.00     0.021 A 
HETATM    9  N   UNK     0     -15.996   6.382   2.490  0.00  0.00    -0.361 N 
HETATM   10  C   UNK     0     -15.832   6.942   1.273  0.00  0.00     0.022 A 
HETATM   11  C   UNK     0     -16.755   7.971   1.106  0.00  0.00    -0.027 A 
HETATM   12  C   UNK     0     -17.488   8.031   2.263  0.00  0.00    -0.031 A 
HETATM   13  C   UNK     0     -18.616   9.001   2.534  0.00  0.00     0.051 C 
HETATM   14  C   UNK     0     -14.770   6.567   0.244  0.00  0.00     0.115 C 
HETATM   15  C   UNK     0     -13.343   6.763   0.731  0.00  0.00     0.021 A 
HETATM   16  N   UNK     0     -12.757   6.198   1.803  0.00  0.00    -0.361 N 
HETATM   17  C   UNK     0     -11.519   6.681   1.931  0.00  0.00     0.022 A 
HETATM   18  C   UNK     0     -11.284   7.597   0.887  0.00  0.00    -0.027 A 
HETATM   19  C   UNK     0     -12.434   7.638   0.142  0.00  0.00    -0.031 A 
HETATM   20  C   UNK     0     -12.598   8.480  -1.111  0.00  0.00     0.051 C 
HETATM   21  C   UNK     0     -10.482   6.426   3.002  0.00  0.00     0.115 C 
HETATM   22  C   UNK     0     -10.976   6.190   4.410  0.00  0.00     0.022 A 
HETATM   23  N   UNK     0     -11.968   6.816   5.056  0.00  0.00    -0.361 N 
HETATM   24  C   UNK     0     -12.165   6.191   6.235  0.00  0.00     0.021 A 
HETATM   25  C   UNK     0     -11.271   5.145   6.355  0.00  0.00    -0.031 A 
HETATM   26  C   UNK     0     -11.078   4.183   7.509  0.00  0.00     0.051 C 
HETATM   27  C   UNK     0     -10.499   5.124   5.199  0.00  0.00    -0.027 A 
HETATM   28  C   UNK     0     -13.238   6.479   7.271  0.00  0.00     0.115 C 
HETATM   29  H   UNK     0     -14.802   7.887   5.210  0.00  0.00     0.165 HD
HETATM   30  H   UNK     0     -15.439   5.498   2.886  0.00  0.00     0.165 HD
HETATM   31  H   UNK     0     -13.208   5.406   2.457  0.00  0.00     0.165 HD
HETATM   32  H   UNK     0     -12.511   7.732   4.705  0.00  0.00     0.165 HD
ENDROOT
BRANCH   6  33
HETATM   33  C   UNK     0     -17.892   4.601   6.700  0.00  0.00     0.051 C 
BRANCH  33  34
HETATM   34  C   UNK     0     -17.826   3.381   5.812  0.00  0.00     0.114 C 
BRANCH  34  35
HETATM   35  C   UNK     0     -17.701   2.189   6.699  0.00  0.00     0.139 C 
HETATM   36  O   UNK     0     -17.023   1.187   6.328  0.00  0.00    -0.650 OA
BRANCH  35  37
HETATM   37  O   UNK     0     -18.306   2.119   7.948  0.00  0.00    -0.776 OA
HETATM   38  H   UNK     0     -19.295   1.963   8.055  0.00  0.00     0.167 HD
ENDBRANCH  35  37
ENDBRANCH  34  35
ENDBRANCH  33  34
ENDBRANCH   6  33
BRANCH  27  39
HETATM   39  C   UNK     0      -9.374   4.173   4.992  0.00  0.00     0.051 C 
BRANCH  39  40
HETATM   40  C   UNK     0      -9.652   2.903   4.322  0.00  0.00     0.114 C 
BRANCH  40  41
HETATM   41  C   UNK     0      -9.737   1.653   5.044  0.00  0.00     0.139 C 
HETATM   42  O   UNK     0      -9.303   1.497   6.194  0.00  0.00    -0.650 OA
BRANCH  41  43
HETATM   43  O   UNK     0     -10.348   0.532   4.415  0.00  0.00    -0.776 OA
HETATM   44  H   UNK     0     -11.343   0.448   4.583  0.00  0.00     0.167 HD
ENDBRANCH  41  43
ENDBRANCH  40  41
ENDBRANCH  39  40
ENDBRANCH  27  39
BRANCH  11  45
HETATM   45  C   UNK     0     -16.957   8.870  -0.084  0.00  0.00     0.051 C 
BRANCH  45  46
HETATM   46  C   UNK     0     -16.291  10.193   0.036  0.00  0.00     0.114 C 
BRANCH  46  47
HETATM   47  C   UNK     0     -17.241  11.215  -0.490  0.00  0.00     0.139 C 
HETATM   48  O   UNK     0     -16.783  12.187  -1.106  0.00  0.00    -0.650 OA
BRANCH  47  49
HETATM   49  O   UNK     0     -18.593  11.083  -0.295  0.00  0.00    -0.776 OA
HETATM   50  H   UNK     0     -18.988  10.354   0.311  0.00  0.00     0.167 HD
ENDBRANCH  47  49
ENDBRANCH  46  47
ENDBRANCH  45  46
ENDBRANCH  11  45
BRANCH  18  51
HETATM   51  C   UNK     0     -10.025   8.374   0.602  0.00  0.00     0.051 C 
BRANCH  51  52
HETATM   52  C   UNK     0      -9.179   7.497  -0.308  0.00  0.00     0.114 C 
BRANCH  52  53
HETATM   53  C   UNK     0      -8.245   8.294  -1.127  0.00  0.00     0.139 C 
HETATM   54  O   UNK     0      -7.705   9.304  -0.648  0.00  0.00    -0.650 OA
BRANCH  53  55
HETATM   55  O   UNK     0      -7.980   7.913  -2.420  0.00  0.00    -0.776 OA
HETATM   56  H   UNK     0      -8.497   7.253  -2.952  0.00  0.00     0.167 HD
ENDBRANCH  53  55
ENDBRANCH  52  53
ENDBRANCH  51  52
ENDBRANCH  18  51
TORSDOF 16
ENDMDL
MODEL 4
REMARK VINA RESULT:      -7.7      7.391     12.342
REMARK  16 active torsions:
REMARK  status: ('A' for Active; 'I' for Inactive)
REMARK    1  A    between atoms: C_6  and  C_7 
REMARK    2  A    between atoms: C_7  and  C_8 
REMARK    3  A    between atoms: C_8  and  C_9 
REMARK    4  A    between atoms: C_9  and  O_11 
REMARK    5  A    between atoms: C_16  and  C_17 
REMARK    6  A    between atoms: C_17  and  C_18 
REMARK    7  A    between atoms: C_18  and  C_19 
REMARK    8  A    between atoms: C_19  and  O_21 
REMARK    9  A    between atoms: C_28  and  C_29 
REMARK   10  A    between atoms: C_29  and  C_30 
REMARK   11  A    between atoms: C_30  and  C_31 
REMARK   12  A    between atoms: C_31  and  O_33 
REMARK   13  A    between atoms: C_42  and  C_43 
REMARK   14  A    between atoms: C_43  and  C_44 
REMARK   15  A    between atoms: C_44  and  C_45 
REMARK   16  A    between atoms: C_45  and  O_47 
ROOT
HETATM    1  C   UNK     0     -26.741  17.181 -11.648  0.00  0.00     0.051 C 
HETATM    2  C   UNK     0     -25.464  16.653 -11.027  0.00  0.00    -0.031 A 
HETATM    3  C   UNK     0     -24.997  16.784  -9.729  0.00  0.00     0.021 A 
HETATM    4  N   UNK     0     -23.791  16.176  -9.630  0.00  0.00    -0.361 N 
HETATM    5  C   UNK     0     -23.484  15.652 -10.834  0.00  0.00     0.022 A 
HETATM    6  C   UNK     0     -24.508  15.934 -11.733  0.00  0.00    -0.027 A 
HETATM    7  C   UNK     0     -22.316  14.805 -11.234  0.00  0.00     0.115 C 
HETATM    8  C   UNK     0     -21.906  13.709 -10.266  0.00  0.00     0.021 A 
HETATM    9  N   UNK     0     -22.688  12.948  -9.485  0.00  0.00    -0.361 N 
HETATM   10  C   UNK     0     -21.889  12.171  -8.722  0.00  0.00     0.022 A 
HETATM   11  C   UNK     0     -20.557  12.433  -9.027  0.00  0.00    -0.027 A 
HETATM   12  C   UNK     0     -20.560  13.400  -9.999  0.00  0.00    -0.031 A 
HETATM   13  C   UNK     0     -19.329  13.996 -10.644  0.00  0.00     0.051 C 
HETATM   14  C   UNK     0     -22.347  11.194  -7.643  0.00  0.00     0.115 C 
HETATM   15  C   UNK     0     -23.112  11.849  -6.504  0.00  0.00     0.021 A 
HETATM   16  N   UNK     0     -24.247  12.568  -6.584  0.00  0.00    -0.361 N 
HETATM   17  C   UNK     0     -24.560  13.029  -5.371  0.00  0.00     0.022 A 
HETATM   18  C   UNK     0     -23.587  12.582  -4.455  0.00  0.00    -0.027 A 
HETATM   19  C   UNK     0     -22.687  11.843  -5.177  0.00  0.00    -0.031 A 
HETATM   20  C   UNK     0     -21.488  11.141  -4.565  0.00  0.00     0.051 C 
HETATM   21  C   UNK     0     -25.689  13.938  -4.938  0.00  0.00     0.115 C 
HETATM   22  C   UNK     0     -26.137  15.005  -5.909  0.00  0.00     0.022 A 
HETATM   23  N   UNK     0     -25.381  15.775  -6.702  0.00  0.00    -0.361 N 
HETATM   24  C   UNK     0     -26.198  16.484  -7.508  0.00  0.00     0.021 A 
HETATM   25  C   UNK     0     -27.512  16.169  -7.219  0.00  0.00    -0.031 A 
HETATM   26  C   UNK     0     -28.782  16.731  -7.824  0.00  0.00     0.051 C 
HETATM   27  C   UNK     0     -27.498  15.225  -6.199  0.00  0.00    -0.027 A 
HETATM   28  C   UNK     0     -25.806  17.423  -8.635  0.00  0.00     0.115 C 
HETATM   29  H   UNK     0     -23.148  16.155  -8.720  0.00  0.00     0.165 HD
HETATM   30  H   UNK     0     -23.805  12.920  -9.505  0.00  0.00     0.165 HD
HETATM   31  H   UNK     0     -24.867  12.714  -7.506  0.00  0.00     0.165 HD
HETATM   32  H   UNK     0     -24.263  15.858  -6.671  0.00  0.00     0.165 HD
ENDROOT
BRANCH   6  33
HETATM   33  C   UNK     0     -24.643  15.580 -13.192  0.00  0.00     0.051 C 
BRANCH  33  34
HETATM   34  C   UNK     0     -23.874  16.554 -14.053  0.00  0.00     0.114 C 
BRANCH  34  35
HETATM   35  C   UNK     0     -23.206  15.767 -15.129  0.00  0.00     0.139 C 
HETATM   36  O   UNK     0     -23.086  16.252 -16.292  0.00  0.00    -0.650 OA
BRANCH  35  37
HETATM   37  O   UNK     0     -22.691  14.494 -14.917  0.00  0.00    -0.776 OA
HETATM   38  H   UNK     0     -21.857  14.171 -15.380  0.00  0.00     0.167 HD
ENDBRANCH  35  37
ENDBRANCH  34  35
ENDBRANCH  33  34
ENDBRANCH   6  33
BRANCH  27  39
HETATM   39  C   UNK     0     -28.738  14.695  -5.569  0.00  0.00     0.051 C 
BRANCH  39  40
HETATM   40  C   UNK     0     -29.093  15.168  -4.231  0.00  0.00     0.114 C 
BRANCH  40  41
HETATM   41  C   UNK     0     -29.037  14.309  -3.070  0.00  0.00     0.139 C 
HETATM   42  O   UNK     0     -28.539  13.175  -3.082  0.00  0.00    -0.650 OA
BRANCH  41  43
HETATM   43  O   UNK     0     -29.579  14.774  -1.839  0.00  0.00    -0.776 OA
HETATM   44  H   UNK     0     -29.061  14.487  -1.017  0.00  0.00     0.167 HD
ENDBRANCH  41  43
ENDBRANCH  40  41
ENDBRANCH  39  40
ENDBRANCH  27  39
BRANCH  11  45
HETATM   45  C   UNK     0     -19.317  11.809  -8.444  0.00  0.00     0.051 C 
BRANCH  45  46
HETATM   46  C   UNK     0     -18.947  12.335  -7.105  0.00  0.00     0.114 C 
BRANCH  46  47
HETATM   47  C   UNK     0     -18.404  11.191  -6.317  0.00  0.00     0.139 C 
HETATM   48  O   UNK     0     -17.915  11.420  -5.202  0.00  0.00    -0.650 OA
BRANCH  47  49
HETATM   49  O   UNK     0     -18.442   9.913  -6.815  0.00  0.00    -0.776 OA
HETATM   50  H   UNK     0     -19.185   9.251  -6.561  0.00  0.00     0.167 HD
ENDBRANCH  47  49
ENDBRANCH  46  47
ENDBRANCH  45  46
ENDBRANCH  11  45
BRANCH  18  51
HETATM   51  C   UNK     0     -23.531  12.827  -2.970  0.00  0.00     0.051 C 
BRANCH  51  52
HETATM   52  C   UNK     0     -24.451  11.796  -2.332  0.00  0.00     0.114 C 
BRANCH  52  53
HETATM   53  C   UNK     0     -23.709  10.603  -1.881  0.00  0.00     0.139 C 
HETATM   54  O   UNK     0     -22.912  10.688  -0.933  0.00  0.00    -0.650 OA
BRANCH  53  55
HETATM   55  O   UNK     0     -23.904   9.401  -2.517  0.00  0.00    -0.776 OA
HETATM   56  H   UNK     0     -24.768   9.057  -2.863  0.00  0.00     0.167 HD
ENDBRANCH  53  55
ENDBRANCH  52  53
ENDBRANCH  51  52
ENDBRANCH  18  51
TORSDOF 16
ENDMDL
MODEL 5
REMARK VINA RESULT:      -7.5      6.117     10.296
REMARK  16 active torsions:
REMARK  status: ('A' for Active; 'I' for Inactive)
REMARK    1  A    between atoms: C_6  and  C_7 
REMARK    2  A    between atoms: C_7  and  C_8 
REMARK    3  A    between atoms: C_8  and  C_9 
REMARK    4  A    between atoms: C_9  and  O_11 
REMARK    5  A    between atoms: C_16  and  C_17 
REMARK    6  A    between atoms: C_17  and  C_18 
REMARK    7  A    between atoms: C_18  and  C_19 
REMARK    8  A    between atoms: C_19  and  O_21 
REMARK    9  A    between atoms: C_28  and  C_29 
REMARK   10  A    between atoms: C_29  and  C_30 
REMARK   11  A    between atoms: C_30  and  C_31 
REMARK   12  A    between atoms: C_31  and  O_33 
REMARK   13  A    between atoms: C_42  and  C_43 
REMARK   14  A    between atoms: C_43  and  C_44 
REMARK   15  A    between atoms: C_44  and  C_45 
REMARK   16  A    between atoms: C_45  and  O_47 
ROOT
HETATM    1  C   UNK     0     -28.464  17.112  -8.431  0.00  0.00     0.051 C 
HETATM    2  C   UNK     0     -27.065  16.719  -8.000  0.00  0.00    -0.031 A 
HETATM    3  C   UNK     0     -26.585  16.423  -6.734  0.00  0.00     0.021 A 
HETATM    4  N   UNK     0     -25.260  16.155  -6.816  0.00  0.00    -0.361 N 
HETATM    5  C   UNK     0     -24.887  16.266  -8.108  0.00  0.00     0.022 A 
HETATM    6  C   UNK     0     -25.992  16.620  -8.876  0.00  0.00    -0.027 A 
HETATM    7  C   UNK     0     -23.562  15.983  -8.744  0.00  0.00     0.115 C 
HETATM    8  C   UNK     0     -22.837  14.731  -8.282  0.00  0.00     0.021 A 
HETATM    9  N   UNK     0     -23.358  13.546  -7.927  0.00  0.00    -0.361 N 
HETATM   10  C   UNK     0     -22.351  12.757  -7.498  0.00  0.00     0.022 A 
HETATM   11  C   UNK     0     -21.147  13.450  -7.587  0.00  0.00    -0.027 A 
HETATM   12  C   UNK     0     -21.446  14.694  -8.080  0.00  0.00    -0.031 A 
HETATM   13  C   UNK     0     -20.442  15.792  -8.349  0.00  0.00     0.051 C 
HETATM   14  C   UNK     0     -22.488  11.344  -6.939  0.00  0.00     0.115 C 
HETATM   15  C   UNK     0     -23.340  11.259  -5.682  0.00  0.00     0.021 A 
HETATM   16  N   UNK     0     -24.624  11.633  -5.534  0.00  0.00    -0.361 N 
HETATM   17  C   UNK     0     -24.986  11.463  -4.260  0.00  0.00     0.022 A 
HETATM   18  C   UNK     0     -23.887  10.944  -3.547  0.00  0.00    -0.027 A 
HETATM   19  C   UNK     0     -22.863  10.820  -4.449  0.00  0.00    -0.031 A 
HETATM   20  C   UNK     0     -21.496  10.259  -4.102  0.00  0.00     0.051 C 
HETATM   21  C   UNK     0     -26.287  11.796  -3.566  0.00  0.00     0.115 C 
HETATM   22  C   UNK     0     -27.041  13.014  -4.046  0.00  0.00     0.022 A 
HETATM   23  N   UNK     0     -26.548  14.206  -4.409  0.00  0.00    -0.361 N 
HETATM   24  C   UNK     0     -27.558  14.948  -4.906  0.00  0.00     0.021 A 
HETATM   25  C   UNK     0     -28.732  14.220  -4.852  0.00  0.00    -0.031 A 
HETATM   26  C   UNK     0     -30.131  14.637  -5.255  0.00  0.00     0.051 C 
HETATM   27  C   UNK     0     -28.426  12.980  -4.305  0.00  0.00    -0.027 A 
HETATM   28  C   UNK     0     -27.476  16.331  -5.528  0.00  0.00     0.115 C 
HETATM   29  H   UNK     0     -24.589  15.929  -5.955  0.00  0.00     0.165 HD
HETATM   30  H   UNK     0     -24.430  13.246  -8.026  0.00  0.00     0.165 HD
HETATM   31  H   UNK     0     -25.305  11.980  -6.354  0.00  0.00     0.165 HD
HETATM   32  H   UNK     0     -25.489  14.550  -4.278  0.00  0.00     0.165 HD
ENDROOT
BRANCH   6  33
HETATM   33  C   UNK     0     -26.102  16.870 -10.358  0.00  0.00     0.051 C 
BRANCH  33  34
HETATM   34  C   UNK     0     -25.835  18.322 -10.677  0.00  0.00     0.114 C 
BRANCH  34  35
HETATM   35  C   UNK     0     -26.702  18.692 -11.833  0.00  0.00     0.139 C 
HETATM   36  O   UNK     0     -27.842  19.204 -11.637  0.00  0.00    -0.650 OA
BRANCH  35  37
HETATM   37  O   UNK     0     -26.311  18.502 -13.153  0.00  0.00    -0.776 OA
HETATM   38  H   UNK     0     -26.924  18.704 -13.926  0.00  0.00     0.167 HD
ENDBRANCH  35  37
ENDBRANCH  34  35
ENDBRANCH  33  34
ENDBRANCH   6  33
BRANCH  27  39
HETATM   39  C   UNK     0     -29.455  11.942  -4.023  0.00  0.00     0.051 C 
BRANCH  39  40
HETATM   40  C   UNK     0     -30.096  11.940  -2.708  0.00  0.00     0.114 C 
BRANCH  40  41
HETATM   41  C   UNK     0     -30.963  10.867  -2.275  0.00  0.00     0.139 C 
HETATM   42  O   UNK     0     -30.727  10.153  -1.291  0.00  0.00    -0.650 OA
BRANCH  41  43
HETATM   43  O   UNK     0     -32.155  10.602  -3.008  0.00  0.00    -0.776 OA
HETATM   44  H   UNK     0     -33.009  10.840  -2.519  0.00  0.00     0.167 HD
ENDBRANCH  41  43
ENDBRANCH  40  41
ENDBRANCH  39  40
ENDBRANCH  27  39
BRANCH  11  45
HETATM   45  C   UNK     0     -19.762  12.980  -7.232  0.00  0.00     0.051 C 
BRANCH  45  46
HETATM   46  C   UNK     0     -19.115  12.151  -8.281  0.00  0.00     0.114 C 
BRANCH  46  47
HETATM   47  C   UNK     0     -18.382  11.054  -7.586  0.00  0.00     0.139 C 
HETATM   48  O   UNK     0     -18.882  10.559  -6.567  0.00  0.00    -0.650 OA
BRANCH  47  49
HETATM   49  O   UNK     0     -17.177  10.602  -8.064  0.00  0.00    -0.776 OA
HETATM   50  H   UNK     0     -16.471  11.238  -8.452  0.00  0.00     0.167 HD
ENDBRANCH  47  49
ENDBRANCH  46  47
ENDBRANCH  45  46
ENDBRANCH  11  45
BRANCH  18  51
HETATM   51  C   UNK     0     -23.823  10.567  -2.089  0.00  0.00     0.051 C 
BRANCH  51  52
HETATM   52  C   UNK     0     -23.472  11.841  -1.335  0.00  0.00     0.114 C 
BRANCH  52  53
HETATM   53  C   UNK     0     -22.185  11.722  -0.624  0.00  0.00     0.139 C 
HETATM   54  O   UNK     0     -21.689  12.713  -0.065  0.00  0.00    -0.650 OA
BRANCH  53  55
HETATM   55  O   UNK     0     -21.538  10.510  -0.588  0.00  0.00    -0.776 OA
HETATM   56  H   UNK     0     -21.963   9.618  -0.688  0.00  0.00     0.167 HD
ENDBRANCH  53  55
ENDBRANCH  52  53
ENDBRANCH  51  52
ENDBRANCH  18  51
TORSDOF 16
ENDMDL
MODEL 6
REMARK VINA RESULT:      -7.5     16.839     20.836
REMARK  16 active torsions:
REMARK  status: ('A' for Active; 'I' for Inactive)
REMARK    1  A    between atoms: C_6  and  C_7 
REMARK    2  A    between atoms: C_7  and  C_8 
REMARK    3  A    between atoms: C_8  and  C_9 
REMARK    4  A    between atoms: C_9  and  O_11 
REMARK    5  A    between atoms: C_16  and  C_17 
REMARK    6  A    between atoms: C_17  and  C_18 
REMARK    7  A    between atoms: C_18  and  C_19 
REMARK    8  A    between atoms: C_19  and  O_21 
REMARK    9  A    between atoms: C_28  and  C_29 
REMARK   10  A    between atoms: C_29  and  C_30 
REMARK   11  A    between atoms: C_30  and  C_31 
REMARK   12  A    between atoms: C_31  and  O_33 
REMARK   13  A    between atoms: C_42  and  C_43 
REMARK   14  A    between atoms: C_43  and  C_44 
REMARK   15  A    between atoms: C_44  and  C_45 
REMARK   16  A    between atoms: C_45  and  O_47 
ROOT
HETATM    1  C   UNK     0      -9.103   4.647   6.891  0.00  0.00     0.051 C 
HETATM    2  C   UNK     0     -10.548   5.022   7.152  0.00  0.00    -0.031 A 
HETATM    3  C   UNK     0     -11.262   6.127   6.717  0.00  0.00     0.021 A 
HETATM    4  N   UNK     0     -12.518   6.066   7.220  0.00  0.00    -0.361 N 
HETATM    5  C   UNK     0     -12.622   4.941   7.958  0.00  0.00     0.022 A 
HETATM    6  C   UNK     0     -11.407   4.266   7.939  0.00  0.00    -0.027 A 
HETATM    7  C   UNK     0     -13.818   4.362   8.647  0.00  0.00     0.115 C 
HETATM    8  C   UNK     0     -15.128   4.393   7.880  0.00  0.00     0.021 A 
HETATM    9  N   UNK     0     -15.329   4.241   6.561  0.00  0.00    -0.361 N 
HETATM   10  C   UNK     0     -16.641   4.436   6.312  0.00  0.00     0.022 A 
HETATM   11  C   UNK     0     -17.306   4.710   7.504  0.00  0.00    -0.027 A 
HETATM   12  C   UNK     0     -16.358   4.684   8.495  0.00  0.00    -0.031 A 
HETATM   13  C   UNK     0     -16.624   4.924   9.965  0.00  0.00     0.051 C 
HETATM   14  C   UNK     0     -17.309   4.423   4.940  0.00  0.00     0.115 C 
HETATM   15  C   UNK     0     -16.780   5.483   3.988  0.00  0.00     0.021 A 
HETATM   16  N   UNK     0     -15.513   5.649   3.565  0.00  0.00    -0.361 N 
HETATM   17  C   UNK     0     -15.447   6.735   2.792  0.00  0.00     0.022 A 
HETATM   18  C   UNK     0     -16.735   7.300   2.700  0.00  0.00    -0.027 A 
HETATM   19  C   UNK     0     -17.561   6.505   3.452  0.00  0.00    -0.031 A 
HETATM   20  C   UNK     0     -19.054   6.738   3.595  0.00  0.00     0.051 C 
HETATM   21  C   UNK     0     -14.253   7.389   2.135  0.00  0.00     0.115 C 
HETATM   22  C   UNK     0     -12.933   7.328   2.867  0.00  0.00     0.022 A 
HETATM   23  N   UNK     0     -12.704   7.470   4.179  0.00  0.00    -0.361 N 
HETATM   24  C   UNK     0     -11.405   7.196   4.415  0.00  0.00     0.021 A 
HETATM   25  C   UNK     0     -10.780   6.879   3.224  0.00  0.00    -0.031 A 
HETATM   26  C   UNK     0      -9.325   6.539   2.972  0.00  0.00     0.051 C 
HETATM   27  C   UNK     0     -11.737   6.956   2.219  0.00  0.00    -0.027 A 
HETATM   28  C   UNK     0     -10.697   7.134   5.757  0.00  0.00     0.115 C 
HETATM   29  H   UNK     0     -13.311   6.838   7.083  0.00  0.00     0.165 HD
HETATM   30  H   UNK     0     -14.555   3.948   5.811  0.00  0.00     0.165 HD
HETATM   31  H   UNK     0     -14.656   4.958   3.777  0.00  0.00     0.165 HD
HETATM   32  H   UNK     0     -13.448   7.809   4.946  0.00  0.00     0.165 HD
ENDROOT
BRANCH   6  33
HETATM   33  C   UNK     0     -11.004   2.975   8.606  0.00  0.00     0.051 C 
BRANCH  33  34
HETATM   34  C   UNK     0     -10.951   1.848   7.601  0.00  0.00     0.114 C 
BRANCH  34  35
HETATM   35  C   UNK     0      -9.564   1.302   7.614  0.00  0.00     0.139 C 
HETATM   36  O   UNK     0      -8.789   1.555   8.582  0.00  0.00    -0.650 OA
BRANCH  35  37
HETATM   37  O   UNK     0      -9.062   0.507   6.591  0.00  0.00    -0.776 OA
HETATM   38  H   UNK     0      -9.659  -0.067   6.018  0.00  0.00     0.167 HD
ENDBRANCH  35  37
ENDBRANCH  34  35
ENDBRANCH  33  34
ENDBRANCH   6  33
BRANCH  27  39
HETATM   39  C   UNK     0     -11.420   6.749   0.780  0.00  0.00     0.051 C 
BRANCH  39  40
HETATM   40  C   UNK     0     -11.017   7.908  -0.016  0.00  0.00     0.114 C 
BRANCH  40  41
HETATM   41  C   UNK     0     -11.872   8.481  -1.031  0.00  0.00     0.139 C 
HETATM   42  O   UNK     0     -11.573   8.523  -2.232  0.00  0.00    -0.650 OA
BRANCH  41  43
HETATM   43  O   UNK     0     -13.127   9.032  -0.647  0.00  0.00    -0.776 OA
HETATM   44  H   UNK     0     -13.156  10.044  -0.640  0.00  0.00     0.167 HD
ENDBRANCH  41  43
ENDBRANCH  40  41
ENDBRANCH  39  40
ENDBRANCH  27  39
BRANCH  11  45
HETATM   45  C   UNK     0     -18.769   4.985   7.724  0.00  0.00     0.051 C 
BRANCH  45  46
HETATM   46  C   UNK     0     -19.533   3.821   8.240  0.00  0.00     0.114 C 
BRANCH  46  47
HETATM   47  C   UNK     0     -20.654   3.572   7.289  0.00  0.00     0.139 C 
HETATM   48  O   UNK     0     -20.538   2.652   6.466  0.00  0.00    -0.650 OA
BRANCH  47  49
HETATM   49  O   UNK     0     -21.788   4.343   7.321  0.00  0.00    -0.776 OA
HETATM   50  H   UNK     0     -21.832   5.266   6.874  0.00  0.00     0.167 HD
ENDBRANCH  47  49
ENDBRANCH  46  47
ENDBRANCH  45  46
ENDBRANCH  11  45
BRANCH  18  51
HETATM   51  C   UNK     0     -17.159   8.517   1.919  0.00  0.00     0.051 C 
BRANCH  51  52
HETATM   52  C   UNK     0     -17.225   8.087   0.461  0.00  0.00     0.114 C 
BRANCH  52  53
HETATM   53  C   UNK     0     -16.848   9.183  -0.452  0.00  0.00     0.139 C 
HETATM   54  O   UNK     0     -15.806   9.828  -0.253  0.00  0.00    -0.650 OA
BRANCH  53  55
HETATM   55  O   UNK     0     -17.657   9.485  -1.520  0.00  0.00    -0.776 OA
HETATM   56  H   UNK     0     -18.567   9.124  -1.685  0.00  0.00     0.167 HD
ENDBRANCH  53  55
ENDBRANCH  52  53
ENDBRANCH  51  52
ENDBRANCH  18  51
TORSDOF 16
ENDMDL
MODEL 7
REMARK VINA RESULT:      -7.3     17.020     20.303
REMARK  16 active torsions:
REMARK  status: ('A' for Active; 'I' for Inactive)
REMARK    1  A    between atoms: C_6  and  C_7 
REMARK    2  A    between atoms: C_7  and  C_8 
REMARK    3  A    between atoms: C_8  and  C_9 
REMARK    4  A    between atoms: C_9  and  O_11 
REMARK    5  A    between atoms: C_16  and  C_17 
REMARK    6  A    between atoms: C_17  and  C_18 
REMARK    7  A    between atoms: C_18  and  C_19 
REMARK    8  A    between atoms: C_19  and  O_21 
REMARK    9  A    between atoms: C_28  and  C_29 
REMARK   10  A    between atoms: C_29  and  C_30 
REMARK   11  A    between atoms: C_30  and  C_31 
REMARK   12  A    between atoms: C_31  and  O_33 
REMARK   13  A    between atoms: C_42  and  C_43 
REMARK   14  A    between atoms: C_43  and  C_44 
REMARK   15  A    between atoms: C_44  and  C_45 
REMARK   16  A    between atoms: C_45  and  O_47 
ROOT
HETATM    1  C   UNK     0     -19.096   5.153   7.608  0.00  0.00     0.051 C 
HETATM    2  C   UNK     0     -17.681   4.684   7.338  0.00  0.00    -0.031 A 
HETATM    3  C   UNK     0     -17.084   4.335   6.136  0.00  0.00     0.021 A 
HETATM    4  N   UNK     0     -15.809   3.945   6.374  0.00  0.00    -0.361 N 
HETATM    5  C   UNK     0     -15.578   4.046   7.699  0.00  0.00     0.022 A 
HETATM    6  C   UNK     0     -16.729   4.503   8.332  0.00  0.00    -0.027 A 
HETATM    7  C   UNK     0     -14.310   3.827   8.463  0.00  0.00     0.115 C 
HETATM    8  C   UNK     0     -13.038   4.384   7.848  0.00  0.00     0.021 A 
HETATM    9  N   UNK     0     -12.876   5.515   7.143  0.00  0.00    -0.361 N 
HETATM   10  C   UNK     0     -11.597   5.562   6.715  0.00  0.00     0.022 A 
HETATM   11  C   UNK     0     -10.914   4.436   7.165  0.00  0.00    -0.027 A 
HETATM   12  C   UNK     0     -11.816   3.690   7.879  0.00  0.00    -0.031 A 
HETATM   13  C   UNK     0     -11.515   2.375   8.563  0.00  0.00     0.051 C 
HETATM   14  C   UNK     0     -10.983   6.639   5.825  0.00  0.00     0.115 C 
HETATM   15  C   UNK     0     -11.641   6.757   4.459  0.00  0.00     0.021 A 
HETATM   16  N   UNK     0     -12.933   7.020   4.190  0.00  0.00    -0.361 N 
HETATM   17  C   UNK     0     -13.125   6.969   2.870  0.00  0.00     0.022 A 
HETATM   18  C   UNK     0     -11.897   6.667   2.249  0.00  0.00    -0.027 A 
HETATM   19  C   UNK     0     -10.975   6.538   3.255  0.00  0.00    -0.031 A 
HETATM   20  C   UNK     0      -9.504   6.247   3.020  0.00  0.00     0.051 C 
HETATM   21  C   UNK     0     -14.397   7.118   2.066  0.00  0.00     0.115 C 
HETATM   22  C   UNK     0     -15.677   6.607   2.685  0.00  0.00     0.022 A 
HETATM   23  N   UNK     0     -15.867   5.488   3.395  0.00  0.00    -0.361 N 
HETATM   24  C   UNK     0     -17.126   5.500   3.877  0.00  0.00     0.021 A 
HETATM   25  C   UNK     0     -17.766   6.650   3.458  0.00  0.00    -0.031 A 
HETATM   26  C   UNK     0     -19.193   7.092   3.707  0.00  0.00     0.051 C 
HETATM   27  C   UNK     0     -16.859   7.375   2.693  0.00  0.00    -0.027 A 
HETATM   28  C   UNK     0     -17.774   4.492   4.811  0.00  0.00     0.115 C 
HETATM   29  H   UNK     0     -15.094   3.563   5.609  0.00  0.00     0.165 HD
HETATM   30  H   UNK     0     -13.650   6.306   6.988  0.00  0.00     0.165 HD
HETATM   31  H   UNK     0     -13.717   7.295   4.942  0.00  0.00     0.165 HD
HETATM   32  H   UNK     0     -15.126   4.656   3.527  0.00  0.00     0.165 HD
ENDROOT
BRANCH   6  33
HETATM   33  C   UNK     0     -16.990   4.774   9.792  0.00  0.00     0.051 C 
BRANCH  33  34
HETATM   34  C   UNK     0     -16.867   6.249  10.093  0.00  0.00     0.114 C 
BRANCH  34  35
HETATM   35  C   UNK     0     -15.417   6.550  10.268  0.00  0.00     0.139 C 
HETATM   36  O   UNK     0     -14.810   6.175  11.313  0.00  0.00    -0.650 OA
BRANCH  35  37
HETATM   37  O   UNK     0     -14.674   7.238   9.316  0.00  0.00    -0.776 OA
HETATM   38  H   UNK     0     -13.820   7.719   9.549  0.00  0.00     0.167 HD
ENDBRANCH  35  37
ENDBRANCH  34  35
ENDBRANCH  33  34
ENDBRANCH   6  33
BRANCH  27  39
HETATM   39  C   UNK     0     -17.212   8.648   2.007  0.00  0.00     0.051 C 
BRANCH  39  40
HETATM   40  C   UNK     0     -17.656   8.586   0.615  0.00  0.00     0.114 C 
BRANCH  40  41
HETATM   41  C   UNK     0     -17.037   9.372  -0.428  0.00  0.00     0.139 C 
HETATM   42  O   UNK     0     -17.541   9.543  -1.546  0.00  0.00    -0.650 OA
BRANCH  41  43
HETATM   43  O   UNK     0     -15.781   9.992  -0.172  0.00  0.00    -0.776 OA
HETATM   44  H   UNK     0     -15.006   9.346  -0.078  0.00  0.00     0.167 HD
ENDBRANCH  41  43
ENDBRANCH  40  41
ENDBRANCH  39  40
ENDBRANCH  27  39
BRANCH  11  45
HETATM   45  C   UNK     0      -9.473   4.059   6.946  0.00  0.00     0.051 C 
BRANCH  45  46
HETATM   46  C   UNK     0      -9.256   3.129   5.808  0.00  0.00     0.114 C 
BRANCH  46  47
HETATM   47  C   UNK     0      -8.473   1.971   6.326  0.00  0.00     0.139 C 
HETATM   48  O   UNK     0      -7.264   2.124   6.546  0.00  0.00    -0.650 OA
BRANCH  47  49
HETATM   49  O   UNK     0      -9.078   0.760   6.554  0.00  0.00    -0.776 OA
HETATM   50  H   UNK     0      -8.557  -0.051   6.908  0.00  0.00     0.167 HD
ENDBRANCH  47  49
ENDBRANCH  46  47
ENDBRANCH  45  46
ENDBRANCH  11  45
BRANCH  18  51
HETATM   51  C   UNK     0     -11.613   6.530   0.775  0.00  0.00     0.051 C 
BRANCH  51  52
HETATM   52  C   UNK     0     -11.168   7.904   0.297  0.00  0.00     0.114 C 
BRANCH  52  53
HETATM   53  C   UNK     0     -12.013   8.403  -0.805  0.00  0.00     0.139 C 
HETATM   54  O   UNK     0     -11.617   8.321  -1.978  0.00  0.00    -0.650 OA
BRANCH  53  55
HETATM   55  O   UNK     0     -13.237   8.960  -0.524  0.00  0.00    -0.776 OA
HETATM   56  H   UNK     0     -13.653   9.034   0.375  0.00  0.00     0.167 HD
ENDBRANCH  53  55
ENDBRANCH  52  53
ENDBRANCH  51  52
ENDBRANCH  18  51
TORSDOF 16
ENDMDL
MODEL 8
REMARK VINA RESULT:      -7.3     19.277     22.557
REMARK  16 active torsions:
REMARK  status: ('A' for Active; 'I' for Inactive)
REMARK    1  A    between atoms: C_6  and  C_7 
REMARK    2  A    between atoms: C_7  and  C_8 
REMARK    3  A    between atoms: C_8  and  C_9 
REMARK    4  A    between atoms: C_9  and  O_11 
REMARK    5  A    between atoms: C_16  and  C_17 
REMARK    6  A    between atoms: C_17  and  C_18 
REMARK    7  A    between atoms: C_18  and  C_19 
REMARK    8  A    between atoms: C_19  and  O_21 
REMARK    9  A    between atoms: C_28  and  C_29 
REMARK   10  A    between atoms: C_29  and  C_30 
REMARK   11  A    between atoms: C_30  and  C_31 
REMARK   12  A    between atoms: C_31  and  O_33 
REMARK   13  A    between atoms: C_42  and  C_43 
REMARK   14  A    between atoms: C_43  and  C_44 
REMARK   15  A    between atoms: C_44  and  C_45 
REMARK   16  A    between atoms: C_45  and  O_47 
ROOT
HETATM    1  C   UNK     0     -15.758   4.755   6.986  0.00  0.00     0.051 C 
HETATM    2  C   UNK     0     -14.860   5.505   6.024  0.00  0.00    -0.031 A 
HETATM    3  C   UNK     0     -13.579   5.996   6.218  0.00  0.00     0.021 A 
HETATM    4  N   UNK     0     -13.174   6.628   5.091  0.00  0.00    -0.361 N 
HETATM    5  C   UNK     0     -14.165   6.543   4.180  0.00  0.00     0.022 A 
HETATM    6  C   UNK     0     -15.237   5.849   4.732  0.00  0.00    -0.027 A 
HETATM    7  C   UNK     0     -14.189   6.993   2.753  0.00  0.00     0.115 C 
HETATM    8  C   UNK     0     -12.942   6.718   1.931  0.00  0.00     0.021 A 
HETATM    9  N   UNK     0     -12.117   5.661   1.991  0.00  0.00    -0.361 N 
HETATM   10  C   UNK     0     -11.090   5.882   1.144  0.00  0.00     0.022 A 
HETATM   11  C   UNK     0     -11.262   7.111   0.513  0.00  0.00    -0.027 A 
HETATM   12  C   UNK     0     -12.427   7.643   1.005  0.00  0.00    -0.031 A 
HETATM   13  C   UNK     0     -13.019   8.974   0.599  0.00  0.00     0.051 C 
HETATM   14  C   UNK     0      -9.883   4.972   0.934  0.00  0.00     0.115 C 
HETATM   15  C   UNK     0      -9.048   4.758   2.187  0.00  0.00     0.021 A 
HETATM   16  N   UNK     0      -9.451   4.247   3.365  0.00  0.00    -0.361 N 
HETATM   17  C   UNK     0      -8.437   4.292   4.232  0.00  0.00     0.022 A 
HETATM   18  C   UNK     0      -7.317   4.849   3.585  0.00  0.00    -0.027 A 
HETATM   19  C   UNK     0      -7.712   5.136   2.304  0.00  0.00    -0.031 A 
HETATM   20  C   UNK     0      -6.792   5.722   1.248  0.00  0.00     0.051 C 
HETATM   21  C   UNK     0      -8.391   3.911   5.694  0.00  0.00     0.115 C 
HETATM   22  C   UNK     0      -9.640   4.138   6.514  0.00  0.00     0.022 A 
HETATM   23  N   UNK     0     -10.482   5.179   6.472  0.00  0.00    -0.361 N 
HETATM   24  C   UNK     0     -11.536   4.903   7.265  0.00  0.00     0.021 A 
HETATM   25  C   UNK     0     -11.365   3.658   7.840  0.00  0.00    -0.031 A 
HETATM   26  C   UNK     0     -12.255   2.933   8.828  0.00  0.00     0.051 C 
HETATM   27  C   UNK     0     -10.158   3.149   7.374  0.00  0.00    -0.027 A 
HETATM   28  C   UNK     0     -12.790   5.737   7.469  0.00  0.00     0.115 C 
HETATM   29  H   UNK     0     -12.205   7.165   4.960  0.00  0.00     0.165 HD
HETATM   30  H   UNK     0     -12.283   4.734   2.593  0.00  0.00     0.165 HD
HETATM   31  H   UNK     0     -10.458   3.802   3.576  0.00  0.00     0.165 HD
HETATM   32  H   UNK     0     -10.318   6.139   5.916  0.00  0.00     0.165 HD
ENDROOT
BRANCH   6  33
HETATM   33  C   UNK     0     -16.575   5.495   4.134  0.00  0.00     0.051 C 
BRANCH  33  34
HETATM   34  C   UNK     0     -17.587   6.583   4.405  0.00  0.00     0.114 C 
BRANCH  34  35
HETATM   35  C   UNK     0     -18.512   6.633   3.236  0.00  0.00     0.139 C 
HETATM   36  O   UNK     0     -19.573   7.321   3.292  0.00  0.00    -0.650 OA
BRANCH  35  37
HETATM   37  O   UNK     0     -18.262   5.949   2.053  0.00  0.00    -0.776 OA
HETATM   38  H   UNK     0     -18.777   6.136   1.208  0.00  0.00     0.167 HD
ENDBRANCH  35  37
ENDBRANCH  34  35
ENDBRANCH  33  34
ENDBRANCH   6  33
BRANCH  27  39
HETATM   39  C   UNK     0      -9.596   1.849   7.831  0.00  0.00     0.051 C 
BRANCH  39  40
HETATM   40  C   UNK     0      -8.729   1.843   9.008  0.00  0.00     0.114 C 
BRANCH  40  41
HETATM   41  C   UNK     0      -7.429   2.475   9.011  0.00  0.00     0.139 C 
HETATM   42  O   UNK     0      -7.112   3.384   9.791  0.00  0.00    -0.650 OA
BRANCH  41  43
HETATM   43  O   UNK     0      -6.448   2.044   8.073  0.00  0.00    -0.776 OA
HETATM   44  H   UNK     0      -5.706   2.712   7.906  0.00  0.00     0.167 HD
ENDBRANCH  41  43
ENDBRANCH  40  41
ENDBRANCH  39  40
ENDBRANCH  27  39
BRANCH  11  45
HETATM   45  C   UNK     0     -10.383   7.775  -0.512  0.00  0.00     0.051 C 
BRANCH  45  46
HETATM   46  C   UNK     0      -9.130   8.347   0.043  0.00  0.00     0.114 C 
BRANCH  46  47
HETATM   47  C   UNK     0      -8.108   8.307  -1.042  0.00  0.00     0.139 C 
HETATM   48  O   UNK     0      -7.454   9.333  -1.277  0.00  0.00    -0.650 OA
BRANCH  47  49
HETATM   49  O   UNK     0      -7.896   7.162  -1.766  0.00  0.00    -0.776 OA
HETATM   50  H   UNK     0      -8.670   6.562  -2.076  0.00  0.00     0.167 HD
ENDBRANCH  47  49
ENDBRANCH  46  47
ENDBRANCH  45  46
ENDBRANCH  11  45
BRANCH  18  51
HETATM   51  C   UNK     0      -5.939   5.077   4.149  0.00  0.00     0.051 C 
BRANCH  51  52
HETATM   52  C   UNK     0      -5.993   6.410   4.881  0.00  0.00     0.114 C 
BRANCH  52  53
HETATM   53  C   UNK     0      -5.399   7.500   4.083  0.00  0.00     0.139 C 
HETATM   54  O   UNK     0      -6.131   8.341   3.539  0.00  0.00    -0.650 OA
BRANCH  53  55
HETATM   55  O   UNK     0      -4.034   7.574   3.945  0.00  0.00    -0.776 OA
HETATM   56  H   UNK     0      -3.546   7.927   3.156  0.00  0.00     0.167 HD
ENDBRANCH  53  55
ENDBRANCH  52  53
ENDBRANCH  51  52
ENDBRANCH  18  51
TORSDOF 16
ENDMDL
MODEL 9
REMARK VINA RESULT:      -7.3     19.393     23.484
REMARK  16 active torsions:
REMARK  status: ('A' for Active; 'I' for Inactive)
REMARK    1  A    between atoms: C_6  and  C_7 
REMARK    2  A    between atoms: C_7  and  C_8 
REMARK    3  A    between atoms: C_8  and  C_9 
REMARK    4  A    between atoms: C_9  and  O_11 
REMARK    5  A    between atoms: C_16  and  C_17 
REMARK    6  A    between atoms: C_17  and  C_18 
REMARK    7  A    between atoms: C_18  and  C_19 
REMARK    8  A    between atoms: C_19  and  O_21 
REMARK    9  A    between atoms: C_28  and  C_29 
REMARK   10  A    between atoms: C_29  and  C_30 
REMARK   11  A    between atoms: C_30  and  C_31 
REMARK   12  A    between atoms: C_31  and  O_33 
REMARK   13  A    between atoms: C_42  and  C_43 
REMARK   14  A    between atoms: C_43  and  C_44 
REMARK   15  A    between atoms: C_44  and  C_45 
REMARK   16  A    between atoms: C_45  and  O_47 
ROOT
HETATM    1  C   UNK     0      -7.829   7.548  -1.121  0.00  0.00     0.051 C 
HETATM    2  C   UNK     0      -9.031   7.046  -0.348  0.00  0.00    -0.031 A 
HETATM    3  C   UNK     0      -9.162   5.910   0.435  0.00  0.00     0.021 A 
HETATM    4  N   UNK     0     -10.429   5.845   0.910  0.00  0.00    -0.361 N 
HETATM    5  C   UNK     0     -11.105   6.919   0.453  0.00  0.00     0.022 A 
HETATM    6  C   UNK     0     -10.262   7.690  -0.339  0.00  0.00    -0.027 A 
HETATM    7  C   UNK     0     -12.501   7.366   0.759  0.00  0.00     0.115 C 
HETATM    8  C   UNK     0     -12.946   7.268   2.208  0.00  0.00     0.021 A 
HETATM    9  N   UNK     0     -12.222   7.468   3.320  0.00  0.00    -0.361 N 
HETATM   10  C   UNK     0     -13.002   7.181   4.384  0.00  0.00     0.022 A 
HETATM   11  C   UNK     0     -14.265   6.795   3.946  0.00  0.00    -0.027 A 
HETATM   12  C   UNK     0     -14.237   6.848   2.575  0.00  0.00    -0.031 A 
HETATM   13  C   UNK     0     -15.397   6.515   1.664  0.00  0.00     0.051 C 
HETATM   14  C   UNK     0     -12.573   7.209   5.849  0.00  0.00     0.115 C 
HETATM   15  C   UNK     0     -11.446   6.243   6.178  0.00  0.00     0.021 A 
HETATM   16  N   UNK     0     -10.215   6.201   5.635  0.00  0.00    -0.361 N 
HETATM   17  C   UNK     0      -9.547   5.163   6.143  0.00  0.00     0.022 A 
HETATM   18  C   UNK     0     -10.379   4.503   7.069  0.00  0.00    -0.027 A 
HETATM   19  C   UNK     0     -11.565   5.190   7.082  0.00  0.00    -0.031 A 
HETATM   20  C   UNK     0     -12.737   4.831   7.977  0.00  0.00     0.051 C 
HETATM   21  C   UNK     0      -8.166   4.641   5.814  0.00  0.00     0.115 C 
HETATM   22  C   UNK     0      -7.693   4.772   4.385  0.00  0.00     0.022 A 
HETATM   23  N   UNK     0      -8.393   4.583   3.259  0.00  0.00    -0.361 N 
HETATM   24  C   UNK     0      -7.622   4.949   2.215  0.00  0.00     0.021 A 
HETATM   25  C   UNK     0      -6.392   5.374   2.680  0.00  0.00    -0.031 A 
HETATM   26  C   UNK     0      -5.185   5.841   1.894  0.00  0.00     0.051 C 
HETATM   27  C   UNK     0      -6.414   5.270   4.066  0.00  0.00    -0.027 A 
HETATM   28  C   UNK     0      -8.008   5.000   0.747  0.00  0.00     0.115 C 
HETATM   29  H   UNK     0     -10.847   5.019   1.531  0.00  0.00     0.165 HD
HETATM   30  H   UNK     0     -11.176   7.859   3.359  0.00  0.00     0.165 HD
HETATM   31  H   UNK     0      -9.791   6.947   4.914  0.00  0.00     0.165 HD
HETATM   32  H   UNK     0      -9.424   4.148   3.187  0.00  0.00     0.165 HD
ENDROOT
BRANCH   6  33
HETATM   33  C   UNK     0     -10.533   8.975  -1.081  0.00  0.00     0.051 C 
BRANCH  33  34
HETATM   34  C   UNK     0     -11.242   8.700  -2.385  0.00  0.00     0.114 C 
BRANCH  34  35
HETATM   35  C   UNK     0     -10.391   9.249  -3.480  0.00  0.00     0.139 C 
HETATM   36  O   UNK     0      -9.599  10.209  -3.251  0.00  0.00    -0.650 OA
BRANCH  35  37
HETATM   37  O   UNK     0     -10.420   8.746  -4.775  0.00  0.00    -0.776 OA
HETATM   38  H   UNK     0     -10.624   9.330  -5.571  0.00  0.00     0.167 HD
ENDBRANCH  35  37
ENDBRANCH  34  35
ENDBRANCH  33  34
ENDBRANCH   6  33
BRANCH  27  39
HETATM   39  C   UNK     0      -5.234   5.574   4.921  0.00  0.00     0.051 C 
BRANCH  39  40
HETATM   40  C   UNK     0      -4.408   4.459   5.386  0.00  0.00     0.114 C 
BRANCH  40  41
HETATM   41  C   UNK     0      -2.997   4.368   5.086  0.00  0.00     0.139 C 
HETATM   42  O   UNK     0      -2.108   4.755   5.856  0.00  0.00    -0.650 OA
BRANCH  41  43
HETATM   43  O   UNK     0      -2.590   3.805   3.843  0.00  0.00    -0.776 OA
HETATM   44  H   UNK     0      -1.765   3.220   3.898  0.00  0.00     0.167 HD
ENDBRANCH  41  43
ENDBRANCH  40  41
ENDBRANCH  39  40
ENDBRANCH  27  39
BRANCH  11  45
HETATM   45  C   UNK     0     -15.463   6.393   4.763  0.00  0.00     0.051 C 
BRANCH  45  46
HETATM   46  C   UNK     0     -16.356   7.523   5.127  0.00  0.00     0.114 C 
BRANCH  46  47
HETATM   47  C   UNK     0     -17.731   7.161   4.679  0.00  0.00     0.139 C 
HETATM   48  O   UNK     0     -18.315   6.230   5.251  0.00  0.00    -0.650 OA
BRANCH  47  49
HETATM   49  O   UNK     0     -18.338   7.843   3.654  0.00  0.00    -0.776 OA
HETATM   50  H   UNK     0     -18.112   7.661   2.669  0.00  0.00     0.167 HD
ENDBRANCH  47  49
ENDBRANCH  46  47
ENDBRANCH  45  46
ENDBRANCH  11  45
BRANCH  18  51
HETATM   51  C   UNK     0     -10.054   3.296   7.910  0.00  0.00     0.051 C 
BRANCH  51  52
HETATM   52  C   UNK     0     -10.748   2.115   7.248  0.00  0.00     0.114 C 
BRANCH  52  53
HETATM   53  C   UNK     0      -9.878   1.449   6.259  0.00  0.00     0.139 C 
HETATM   54  O   UNK     0      -9.995   1.713   5.051  0.00  0.00    -0.650 OA
BRANCH  53  55
HETATM   55  O   UNK     0      -8.944   0.536   6.682  0.00  0.00    -0.776 OA
HETATM   56  H   UNK     0      -9.120  -0.260   7.249  0.00  0.00     0.167 HD
ENDBRANCH  53  55
ENDBRANCH  52  53
ENDBRANCH  51  52
ENDBRANCH  18  51
TORSDOF 16
ENDMDL
MODEL 10
REMARK VINA RESULT:      -7.3     20.443     23.363
REMARK  16 active torsions:
REMARK  status: ('A' for Active; 'I' for Inactive)
REMARK    1  A    between atoms: C_6  and  C_7 
REMARK    2  A    between atoms: C_7  and  C_8 
REMARK    3  A    between atoms: C_8  and  C_9 
REMARK    4  A    between atoms: C_9  and  O_11 
REMARK    5  A    between atoms: C_16  and  C_17 
REMARK    6  A    between atoms: C_17  and  C_18 
REMARK    7  A    between atoms: C_18  and  C_19 
REMARK    8  A    between atoms: C_19  and  O_21 
REMARK    9  A    between atoms: C_28  and  C_29 
REMARK   10  A    between atoms: C_29  and  C_30 
REMARK   11  A    between atoms: C_30  and  C_31 
REMARK   12  A    between atoms: C_31  and  O_33 
REMARK   13  A    between atoms: C_42  and  C_43 
REMARK   14  A    between atoms: C_43  and  C_44 
REMARK   15  A    between atoms: C_44  and  C_45 
REMARK   16  A    between atoms: C_45  and  O_47 
ROOT
HETATM    1  C   UNK     0     -12.986   6.418   1.371  0.00  0.00     0.051 C 
HETATM    2  C   UNK     0     -11.922   6.244   2.436  0.00  0.00    -0.031 A 
HETATM    3  C   UNK     0     -11.937   6.632   3.766  0.00  0.00     0.021 A 
HETATM    4  N   UNK     0     -10.755   6.299   4.336  0.00  0.00    -0.361 N 
HETATM    5  C   UNK     0      -9.991   5.699   3.401  0.00  0.00     0.022 A 
HETATM    6  C   UNK     0     -10.689   5.651   2.199  0.00  0.00    -0.027 A 
HETATM    7  C   UNK     0      -8.642   5.064   3.538  0.00  0.00     0.115 C 
HETATM    8  C   UNK     0      -8.415   4.207   4.771  0.00  0.00     0.021 A 
HETATM    9  N   UNK     0      -9.286   3.408   5.406  0.00  0.00    -0.361 N 
HETATM   10  C   UNK     0      -8.678   2.914   6.506  0.00  0.00     0.022 A 
HETATM   11  C   UNK     0      -7.376   3.400   6.575  0.00  0.00    -0.027 A 
HETATM   12  C   UNK     0      -7.203   4.215   5.485  0.00  0.00    -0.031 A 
HETATM   13  C   UNK     0      -5.933   4.961   5.143  0.00  0.00     0.051 C 
HETATM   14  C   UNK     0      -9.313   2.011   7.559  0.00  0.00     0.115 C 
HETATM   15  C   UNK     0     -10.503   2.637   8.270  0.00  0.00     0.021 A 
HETATM   16  N   UNK     0     -11.643   3.093   7.718  0.00  0.00    -0.361 N 
HETATM   17  C   UNK     0     -12.406   3.632   8.671  0.00  0.00     0.022 A 
HETATM   18  C   UNK     0     -11.735   3.513   9.905  0.00  0.00    -0.027 A 
HETATM   19  C   UNK     0     -10.545   2.886   9.640  0.00  0.00    -0.031 A 
HETATM   20  C   UNK     0      -9.525   2.527  10.705  0.00  0.00     0.051 C 
HETATM   21  C   UNK     0     -13.738   4.340   8.566  0.00  0.00     0.115 C 
HETATM   22  C   UNK     0     -13.995   5.161   7.324  0.00  0.00     0.022 A 
HETATM   23  N   UNK     0     -13.145   5.961   6.667  0.00  0.00    -0.361 N 
HETATM   24  C   UNK     0     -13.746   6.380   5.535  0.00  0.00     0.021 A 
HETATM   25  C   UNK     0     -15.018   5.844   5.467  0.00  0.00    -0.031 A 
HETATM   26  C   UNK     0     -16.085   6.054   4.412  0.00  0.00     0.051 C 
HETATM   27  C   UNK     0     -15.200   5.061   6.600  0.00  0.00    -0.027 A 
HETATM   28  C   UNK     0     -13.150   7.227   4.425  0.00  0.00     0.115 C 
HETATM   29  H   UNK     0     -10.454   6.526   5.385  0.00  0.00     0.165 HD
HETATM   30  H   UNK     0     -10.316   3.152   5.055  0.00  0.00     0.165 HD
HETATM   31  H   UNK     0     -11.936   2.991   6.641  0.00  0.00     0.165 HD
HETATM   32  H   UNK     0     -12.127   6.273   7.019  0.00  0.00     0.165 HD
ENDROOT
BRANCH   6  33
HETATM   33  C   UNK     0     -10.278   5.093   0.860  0.00  0.00     0.051 C 
BRANCH  33  34
HETATM   34  C   UNK     0      -9.517   6.124   0.061  0.00  0.00     0.114 C 
BRANCH  34  35
HETATM   35  C   UNK     0      -8.252   5.485  -0.404  0.00  0.00     0.139 C 
HETATM   36  O   UNK     0      -8.009   4.276  -0.122  0.00  0.00    -0.650 OA
BRANCH  35  37
HETATM   37  O   UNK     0      -7.301   6.165  -1.154  0.00  0.00    -0.776 OA
HETATM   38  H   UNK     0      -7.236   7.171  -1.150  0.00  0.00     0.167 HD
ENDBRANCH  35  37
ENDBRANCH  34  35
ENDBRANCH  33  34
ENDBRANCH   6  33
BRANCH  27  39
HETATM   39  C   UNK     0     -16.483   4.374   6.913  0.00  0.00     0.051 C 
BRANCH  39  40
HETATM   40  C   UNK     0     -16.873   3.226   6.096  0.00  0.00     0.114 C 
BRANCH  40  41
HETATM   41  C   UNK     0     -17.362   1.996   6.679  0.00  0.00     0.139 C 
HETATM   42  O   UNK     0     -16.941   0.875   6.362  0.00  0.00    -0.650 OA
BRANCH  41  43
HETATM   43  O   UNK     0     -18.381   2.059   7.671  0.00  0.00    -0.776 OA
HETATM   44  H   UNK     0     -18.872   2.944   7.712  0.00  0.00     0.167 HD
ENDBRANCH  41  43
ENDBRANCH  40  41
ENDBRANCH  39  40
ENDBRANCH  27  39
BRANCH  11  45
HETATM   45  C   UNK     0      -6.320   3.122   7.611  0.00  0.00     0.051 C 
BRANCH  45  46
HETATM   46  C   UNK     0      -5.285   2.150   7.175  0.00  0.00     0.114 C 
BRANCH  46  47
HETATM   47  C   UNK     0      -3.959   2.714   7.561  0.00  0.00     0.139 C 
HETATM   48  O   UNK     0      -3.556   2.539   8.719  0.00  0.00    -0.650 OA
BRANCH  47  49
HETATM   49  O   UNK     0      -3.203   3.414   6.655  0.00  0.00    -0.776 OA
HETATM   50  H   UNK     0      -2.787   2.965   5.830  0.00  0.00     0.167 HD
ENDBRANCH  47  49
ENDBRANCH  46  47
ENDBRANCH  45  46
ENDBRANCH  11  45
BRANCH  18  51
HETATM   51  C   UNK     0     -12.212   3.952  11.265  0.00  0.00     0.051 C 
BRANCH  51  52
HETATM   52  C   UNK     0     -13.140   2.855  11.766  0.00  0.00     0.114 C 
BRANCH  52  53
HETATM   53  C   UNK     0     -14.455   3.390  12.170  0.00  0.00     0.139 C 
HETATM   54  O   UNK     0     -14.700   4.600  12.041  0.00  0.00    -0.650 OA
BRANCH  53  55
HETATM   55  O   UNK     0     -15.402   2.542  12.692  0.00  0.00    -0.776 OA
HETATM   56  H   UNK     0     -16.371   2.547  12.478  0.00  0.00     0.167 HD
ENDBRANCH  53  55
ENDBRANCH  52  53
ENDBRANCH  51  52
ENDBRANCH  18  51
TORSDOF 16
ENDMDL
MODEL 11
REMARK VINA RESULT:      -7.2     19.736     22.984
REMARK  16 active torsions:
REMARK  status: ('A' for Active; 'I' for Inactive)
REMARK    1  A    between atoms: C_6  and  C_7 
REMARK    2  A    between atoms: C_7  and  C_8 
REMARK    3  A    between atoms: C_8  and  C_9 
REMARK    4  A    between atoms: C_9  and  O_11 
REMARK    5  A    between atoms: C_16  and  C_17 
REMARK    6  A    between atoms: C_17  and  C_18 
REMARK    7  A    between atoms: C_18  and  C_19 
REMARK    8  A    between atoms: C_19  and  O_21 
REMARK    9  A    between atoms: C_28  and  C_29 
REMARK   10  A    between atoms: C_29  and  C_30 
REMARK   11  A    between atoms: C_30  and  C_31 
REMARK   12  A    between atoms: C_31  and  O_33 
REMARK   13  A    between atoms: C_42  and  C_43 
REMARK   14  A    between atoms: C_43  and  C_44 
REMARK   15  A    between atoms: C_44  and  C_45 
REMARK   16  A    between atoms: C_45  and  O_47 
ROOT
HETATM    1  C   UNK     0     -15.318   5.633   6.863  0.00  0.00     0.051 C 
HETATM    2  C   UNK     0     -14.353   6.162   5.821  0.00  0.00    -0.031 A 
HETATM    3  C   UNK     0     -13.111   6.752   5.991  0.00  0.00     0.021 A 
HETATM    4  N   UNK     0     -12.618   7.100   4.779  0.00  0.00    -0.361 N 
HETATM    5  C   UNK     0     -13.515   6.736   3.839  0.00  0.00     0.022 A 
HETATM    6  C   UNK     0     -14.614   6.149   4.457  0.00  0.00    -0.027 A 
HETATM    7  C   UNK     0     -13.414   6.809   2.348  0.00  0.00     0.115 C 
HETATM    8  C   UNK     0     -12.086   6.400   1.734  0.00  0.00     0.021 A 
HETATM    9  N   UNK     0     -11.242   5.437   2.133  0.00  0.00    -0.361 N 
HETATM   10  C   UNK     0     -10.144   5.490   1.348  0.00  0.00     0.022 A 
HETATM   11  C   UNK     0     -10.290   6.509   0.412  0.00  0.00    -0.027 A 
HETATM   12  C   UNK     0     -11.512   7.087   0.649  0.00  0.00    -0.031 A 
HETATM   13  C   UNK     0     -12.100   8.240  -0.133  0.00  0.00     0.051 C 
HETATM   14  C   UNK     0      -8.897   4.621   1.483  0.00  0.00     0.115 C 
HETATM   15  C   UNK     0      -8.181   4.774   2.815  0.00  0.00     0.021 A 
HETATM   16  N   UNK     0      -8.680   4.557   4.046  0.00  0.00    -0.361 N 
HETATM   17  C   UNK     0      -7.756   4.872   4.956  0.00  0.00     0.022 A 
HETATM   18  C   UNK     0      -6.595   5.306   4.285  0.00  0.00    -0.027 A 
HETATM   19  C   UNK     0      -6.874   5.239   2.945  0.00  0.00    -0.031 A 
HETATM   20  C   UNK     0      -5.874   5.586   1.857  0.00  0.00     0.051 C 
HETATM   21  C   UNK     0      -7.840   4.876   6.465  0.00  0.00     0.115 C 
HETATM   22  C   UNK     0      -9.167   5.237   7.089  0.00  0.00     0.022 A 
HETATM   23  N   UNK     0     -10.030   6.189   6.711  0.00  0.00    -0.361 N 
HETATM   24  C   UNK     0     -11.148   6.067   7.455  0.00  0.00     0.021 A 
HETATM   25  C   UNK     0     -10.997   5.018   8.341  0.00  0.00    -0.031 A 
HETATM   26  C   UNK     0     -11.956   4.521   9.403  0.00  0.00     0.051 C 
HETATM   27  C   UNK     0      -9.737   4.471   8.127  0.00  0.00    -0.027 A 
HETATM   28  C   UNK     0     -12.438   6.858   7.331  0.00  0.00     0.115 C 
HETATM   29  H   UNK     0     -11.657   7.635   4.598  0.00  0.00     0.165 HD
HETATM   30  H   UNK     0     -11.438   4.685   2.936  0.00  0.00     0.165 HD
HETATM   31  H   UNK     0      -9.690   4.128   4.277  0.00  0.00     0.165 HD
HETATM   32  H   UNK     0      -9.842   6.984   5.943  0.00  0.00     0.165 HD
ENDROOT
BRANCH   6  33
HETATM   33  C   UNK     0     -15.878   5.585   3.857  0.00  0.00     0.051 C 
BRANCH  33  34
HETATM   34  C   UNK     0     -16.912   6.670   3.674  0.00  0.00     0.114 C 
BRANCH  34  35
HETATM   35  C   UNK     0     -18.254   6.039   3.831  0.00  0.00     0.139 C 
HETATM   36  O   UNK     0     -18.389   4.787   3.698  0.00  0.00    -0.650 OA
BRANCH  35  37
HETATM   37  O   UNK     0     -19.397   6.771   4.127  0.00  0.00    -0.776 OA
HETATM   38  H   UNK     0     -19.366   7.763   4.300  0.00  0.00     0.167 HD
ENDBRANCH  35  37
ENDBRANCH  34  35
ENDBRANCH  33  34
ENDBRANCH   6  33
BRANCH  27  39
HETATM   39  C   UNK     0      -9.184   3.360   8.948  0.00  0.00     0.051 C 
BRANCH  39  40
HETATM   40  C   UNK     0      -8.833   2.109   8.276  0.00  0.00     0.114 C 
BRANCH  40  41
HETATM   41  C   UNK     0      -9.750   1.425   7.393  0.00  0.00     0.139 C 
HETATM   42  O   UNK     0     -10.977   1.591   7.419  0.00  0.00    -0.650 OA
BRANCH  41  43
HETATM   43  O   UNK     0      -9.233   0.506   6.436  0.00  0.00    -0.776 OA
HETATM   44  H   UNK     0      -8.227   0.391   6.467  0.00  0.00     0.167 HD
ENDBRANCH  41  43
ENDBRANCH  40  41
ENDBRANCH  39  40
ENDBRANCH  27  39
BRANCH  11  45
HETATM   45  C   UNK     0      -9.336   6.938  -0.671  0.00  0.00     0.051 C 
BRANCH  45  46
HETATM   46  C   UNK     0      -8.341   7.951  -0.235  0.00  0.00     0.114 C 
BRANCH  46  47
HETATM   47  C   UNK     0      -7.941   8.725  -1.445  0.00  0.00     0.139 C 
HETATM   48  O   UNK     0      -7.629   9.916  -1.309  0.00  0.00    -0.650 OA
BRANCH  47  49
HETATM   49  O   UNK     0      -7.919   8.133  -2.683  0.00  0.00    -0.776 OA
HETATM   50  H   UNK     0      -8.252   8.618  -3.525  0.00  0.00     0.167 HD
ENDBRANCH  47  49
ENDBRANCH  46  47
ENDBRANCH  45  46
ENDBRANCH  11  45
BRANCH  18  51
HETATM   51  C   UNK     0      -5.284   5.740   4.889  0.00  0.00     0.051 C 
BRANCH  51  52
HETATM   52  C   UNK     0      -4.510   4.465   5.189  0.00  0.00     0.114 C 
BRANCH  52  53
HETATM   53  C   UNK     0      -3.157   4.493   4.603  0.00  0.00     0.139 C 
HETATM   54  O   UNK     0      -2.180   4.793   5.307  0.00  0.00    -0.650 OA
BRANCH  53  55
HETATM   55  O   UNK     0      -2.985   4.189   3.274  0.00  0.00    -0.776 OA
HETATM   56  H   UNK     0      -2.345   3.527   2.904  0.00  0.00     0.167 HD
ENDBRANCH  53  55
ENDBRANCH  52  53
ENDBRANCH  51  52
ENDBRANCH  18  51
TORSDOF 16
ENDMDL
MODEL 12
REMARK VINA RESULT:      -7.2     26.003     29.956
REMARK  16 active torsions:
REMARK  status: ('A' for Active; 'I' for Inactive)
REMARK    1  A    between atoms: C_6  and  C_7 
REMARK    2  A    between atoms: C_7  and  C_8 
REMARK    3  A    between atoms: C_8  and  C_9 
REMARK    4  A    between atoms: C_9  and  O_11 
REMARK    5  A    between atoms: C_16  and  C_17 
REMARK    6  A    between atoms: C_17  and  C_18 
REMARK    7  A    between atoms: C_18  and  C_19 
REMARK    8  A    between atoms: C_19  and  O_21 
REMARK    9  A    between atoms: C_28  and  C_29 
REMARK   10  A    between atoms: C_29  and  C_30 
REMARK   11  A    between atoms: C_30  and  C_31 
REMARK   12  A    between atoms: C_31  and  O_33 
REMARK   13  A    between atoms: C_42  and  C_43 
REMARK   14  A    between atoms: C_43  and  C_44 
REMARK   15  A    between atoms: C_44  and  C_45 
REMARK   16  A    between atoms: C_45  and  O_47 
ROOT
HETATM    1  C   UNK     0       0.319   4.898   9.724  0.00  0.00     0.051 C 
HETATM    2  C   UNK     0      -1.194   4.809   9.728  0.00  0.00    -0.031 A 
HETATM    3  C   UNK     0      -2.125   5.636   9.120  0.00  0.00     0.021 A 
HETATM    4  N   UNK     0      -3.369   5.194   9.418  0.00  0.00    -0.361 N 
HETATM    5  C   UNK     0      -3.251   4.098  10.195  0.00  0.00     0.022 A 
HETATM    6  C   UNK     0      -1.904   3.831  10.411  0.00  0.00    -0.027 A 
HETATM    7  C   UNK     0      -4.314   3.182  10.717  0.00  0.00     0.115 C 
HETATM    8  C   UNK     0      -5.421   2.801   9.749  0.00  0.00     0.021 A 
HETATM    9  N   UNK     0      -5.338   2.585   8.427  0.00  0.00    -0.361 N 
HETATM   10  C   UNK     0      -6.585   2.363   7.960  0.00  0.00     0.022 A 
HETATM   11  C   UNK     0      -7.494   2.427   9.011  0.00  0.00    -0.027 A 
HETATM   12  C   UNK     0      -6.768   2.702  10.141  0.00  0.00    -0.031 A 
HETATM   13  C   UNK     0      -7.341   2.859  11.532  0.00  0.00     0.051 C 
HETATM   14  C   UNK     0      -6.973   2.134   6.502  0.00  0.00     0.115 C 
HETATM   15  C   UNK     0      -6.636   3.299   5.585  0.00  0.00     0.021 A 
HETATM   16  N   UNK     0      -5.426   3.845   5.361  0.00  0.00    -0.361 N 
HETATM   17  C   UNK     0      -5.562   4.893   4.546  0.00  0.00     0.022 A 
HETATM   18  C   UNK     0      -6.924   5.031   4.215  0.00  0.00    -0.027 A 
HETATM   19  C   UNK     0      -7.586   4.026   4.871  0.00  0.00    -0.031 A 
HETATM   20  C   UNK     0      -9.081   3.786   4.759  0.00  0.00     0.051 C 
HETATM   21  C   UNK     0      -4.528   5.879   4.050  0.00  0.00     0.115 C 
HETATM   22  C   UNK     0      -3.397   6.234   4.987  0.00  0.00     0.022 A 
HETATM   23  N   UNK     0      -3.450   6.450   6.308  0.00  0.00    -0.361 N 
HETATM   24  C   UNK     0      -2.189   6.592   6.764  0.00  0.00     0.021 A 
HETATM   25  C   UNK     0      -1.304   6.475   5.710  0.00  0.00    -0.031 A 
HETATM   26  C   UNK     0       0.206   6.600   5.715  0.00  0.00     0.051 C 
HETATM   27  C   UNK     0      -2.053   6.245   4.562  0.00  0.00    -0.027 A 
HETATM   28  C   UNK     0      -1.736   6.762   8.204  0.00  0.00     0.115 C 
HETATM   29  H   UNK     0      -4.323   5.682   9.109  0.00  0.00     0.165 HD
HETATM   30  H   UNK     0      -4.395   2.540   7.829  0.00  0.00     0.165 HD
HETATM   31  H   UNK     0      -4.449   3.454   5.748  0.00  0.00     0.165 HD
HETATM   32  H   UNK     0      -4.382   6.547   6.924  0.00  0.00     0.165 HD
ENDROOT
BRANCH   6  33
HETATM   33  C   UNK     0      -1.248   2.732  11.209  0.00  0.00     0.051 C 
BRANCH  33  34
HETATM   34  C   UNK     0      -0.728   1.646  10.298  0.00  0.00     0.114 C 
BRANCH  34  35
HETATM   35  C   UNK     0       0.645   1.294  10.762  0.00  0.00     0.139 C 
HETATM   36  O   UNK     0       1.307   2.108  11.469  0.00  0.00    -0.650 OA
BRANCH  35  37
HETATM   37  O   UNK     0       1.253   0.083  10.451  0.00  0.00    -0.776 OA
HETATM   38  H   UNK     0       1.902  -0.008   9.686  0.00  0.00     0.167 HD
ENDBRANCH  35  37
ENDBRANCH  34  35
ENDBRANCH  33  34
ENDBRANCH   6  33
BRANCH  27  39
HETATM   39  C   UNK     0      -1.448   6.136   3.207  0.00  0.00     0.051 C 
BRANCH  39  40
HETATM   40  C   UNK     0      -1.360   4.812   2.591  0.00  0.00     0.114 C 
BRANCH  40  41
HETATM   41  C   UNK     0      -1.989   4.508   1.325  0.00  0.00     0.139 C 
HETATM   42  O   UNK     0      -3.213   4.390   1.181  0.00  0.00    -0.650 OA
BRANCH  41  43
HETATM   43  O   UNK     0      -1.172   4.332   0.172  0.00  0.00    -0.776 OA
HETATM   44  H   UNK     0      -0.635   5.150  -0.090  0.00  0.00     0.167 HD
ENDBRANCH  41  43
ENDBRANCH  40  41
ENDBRANCH  39  40
ENDBRANCH  27  39
BRANCH  11  45
HETATM   45  C   UNK     0      -8.987   2.238   8.978  0.00  0.00     0.051 C 
BRANCH  45  46
HETATM   46  C   UNK     0      -9.747   3.470   8.646  0.00  0.00     0.114 C 
BRANCH  46  47
HETATM   47  C   UNK     0     -10.974   3.049   7.912  0.00  0.00     0.139 C 
HETATM   48  O   UNK     0     -11.076   1.865   7.560  0.00  0.00    -0.650 OA
BRANCH  47  49
HETATM   49  O   UNK     0     -11.970   3.950   7.632  0.00  0.00    -0.776 OA
HETATM   50  H   UNK     0     -11.797   4.962   7.605  0.00  0.00     0.167 HD
ENDBRANCH  47  49
ENDBRANCH  46  47
ENDBRANCH  45  46
ENDBRANCH  11  45
BRANCH  18  51
HETATM   51  C   UNK     0      -7.558   6.052   3.306  0.00  0.00     0.051 C 
BRANCH  51  52
HETATM   52  C   UNK     0      -7.646   5.403   1.932  0.00  0.00     0.114 C 
BRANCH  52  53
HETATM   53  C   UNK     0      -6.537   5.821   1.054  0.00  0.00     0.139 C 
HETATM   54  O   UNK     0      -6.106   6.984   1.108  0.00  0.00    -0.650 OA
BRANCH  53  55
HETATM   55  O   UNK     0      -5.986   4.918   0.177  0.00  0.00    -0.776 OA
HETATM   56  H   UNK     0      -5.264   4.269   0.384  0.00  0.00     0.167 HD
ENDBRANCH  53  55
ENDBRANCH  52  53
ENDBRANCH  51  52
ENDBRANCH  18  51
TORSDOF 16
ENDMDL
MODEL 13
REMARK VINA RESULT:      -7.2     12.523     18.759
REMARK  16 active torsions:
REMARK  status: ('A' for Active; 'I' for Inactive)
REMARK    1  A    between atoms: C_6  and  C_7 
REMARK    2  A    between atoms: C_7  and  C_8 
REMARK    3  A    between atoms: C_8  and  C_9 
REMARK    4  A    between atoms: C_9  and  O_11 
REMARK    5  A    between atoms: C_16  and  C_17 
REMARK    6  A    between atoms: C_17  and  C_18 
REMARK    7  A    between atoms: C_18  and  C_19 
REMARK    8  A    between atoms: C_19  and  O_21 
REMARK    9  A    between atoms: C_28  and  C_29 
REMARK   10  A    between atoms: C_29  and  C_30 
REMARK   11  A    between atoms: C_30  and  C_31 
REMARK   12  A    between atoms: C_31  and  O_33 
REMARK   13  A    between atoms: C_42  and  C_43 
REMARK   14  A    between atoms: C_43  and  C_44 
REMARK   15  A    between atoms: C_44  and  C_45 
REMARK   16  A    between atoms: C_45  and  O_47 
ROOT
HETATM    1  C   UNK     0     -22.276  15.224 -15.819  0.00  0.00     0.051 C 
HETATM    2  C   UNK     0     -22.033  14.332 -14.619  0.00  0.00    -0.031 A 
HETATM    3  C   UNK     0     -21.292  13.165 -14.526  0.00  0.00     0.021 A 
HETATM    4  N   UNK     0     -21.379  12.686 -13.262  0.00  0.00    -0.361 N 
HETATM    5  C   UNK     0     -22.153  13.527 -12.545  0.00  0.00     0.022 A 
HETATM    6  C   UNK     0     -22.582  14.567 -13.364  0.00  0.00    -0.027 A 
HETATM    7  C   UNK     0     -22.486  13.505 -11.086  0.00  0.00     0.115 C 
HETATM    8  C   UNK     0     -21.347  13.188 -10.133  0.00  0.00     0.021 A 
HETATM    9  N   UNK     0     -20.054  13.531 -10.231  0.00  0.00    -0.361 N 
HETATM   10  C   UNK     0     -19.388  12.955  -9.207  0.00  0.00     0.022 A 
HETATM   11  C   UNK     0     -20.279  12.229  -8.423  0.00  0.00    -0.027 A 
HETATM   12  C   UNK     0     -21.515  12.371  -9.000  0.00  0.00    -0.031 A 
HETATM   13  C   UNK     0     -22.797  11.755  -8.485  0.00  0.00     0.051 C 
HETATM   14  C   UNK     0     -17.884  13.023  -8.958  0.00  0.00     0.115 C 
HETATM   15  C   UNK     0     -17.047  12.431 -10.081  0.00  0.00     0.021 A 
HETATM   16  N   UNK     0     -17.029  12.801 -11.375  0.00  0.00    -0.361 N 
HETATM   17  C   UNK     0     -16.214  11.989 -12.052  0.00  0.00     0.022 A 
HETATM   18  C   UNK     0     -15.668  11.050 -11.154  0.00  0.00    -0.027 A 
HETATM   19  C   UNK     0     -16.197  11.338  -9.923  0.00  0.00    -0.031 A 
HETATM   20  C   UNK     0     -15.842  10.584  -8.655  0.00  0.00     0.051 C 
HETATM   21  C   UNK     0     -15.904  11.936 -13.531  0.00  0.00     0.115 C 
HETATM   22  C   UNK     0     -17.015  12.292 -14.490  0.00  0.00     0.022 A 
HETATM   23  N   UNK     0     -18.312  11.967 -14.415  0.00  0.00    -0.361 N 
HETATM   24  C   UNK     0     -18.968  12.615 -15.399  0.00  0.00     0.021 A 
HETATM   25  C   UNK     0     -18.070  13.367 -16.132  0.00  0.00    -0.031 A 
HETATM   26  C   UNK     0     -18.320  14.229 -17.352  0.00  0.00     0.051 C 
HETATM   27  C   UNK     0     -16.813  13.177 -15.569  0.00  0.00    -0.027 A 
HETATM   28  C   UNK     0     -20.464  12.635 -15.662  0.00  0.00     0.115 C 
HETATM   29  H   UNK     0     -20.926  11.736 -12.895  0.00  0.00     0.165 HD
HETATM   30  H   UNK     0     -19.615  14.221 -10.993  0.00  0.00     0.165 HD
HETATM   31  H   UNK     0     -17.564  13.684 -11.812  0.00  0.00     0.165 HD
HETATM   32  H   UNK     0     -18.770  11.243 -13.693  0.00  0.00     0.165 HD
ENDROOT
BRANCH   6  33
HETATM   33  C   UNK     0     -23.463  15.749 -13.050  0.00  0.00     0.051 C 
BRANCH  33  34
HETATM   34  C   UNK     0     -24.914  15.336 -12.996  0.00  0.00     0.114 C 
BRANCH  34  35
HETATM   35  C   UNK     0     -25.672  16.244 -13.904  0.00  0.00     0.139 C 
HETATM   36  O   UNK     0     -25.100  17.246 -14.424  0.00  0.00    -0.650 OA
BRANCH  35  37
HETATM   37  O   UNK     0     -27.009  16.042 -14.221  0.00  0.00    -0.776 OA
HETATM   38  H   UNK     0     -27.750  16.245 -13.569  0.00  0.00     0.167 HD
ENDBRANCH  35  37
ENDBRANCH  34  35
ENDBRANCH  33  34
ENDBRANCH   6  33
BRANCH  27  39
HETATM   39  C   UNK     0     -15.573  13.774 -16.135  0.00  0.00     0.051 C 
BRANCH  39  40
HETATM   40  C   UNK     0     -14.757  12.959 -17.034  0.00  0.00     0.114 C 
BRANCH  40  41
HETATM   41  C   UNK     0     -13.738  12.057 -16.546  0.00  0.00     0.139 C 
HETATM   42  O   UNK     0     -12.564  12.397 -16.345  0.00  0.00    -0.650 OA
BRANCH  41  43
HETATM   43  O   UNK     0     -14.084  10.703 -16.276  0.00  0.00    -0.776 OA
HETATM   44  H   UNK     0     -14.019  10.440 -15.300  0.00  0.00     0.167 HD
ENDBRANCH  41  43
ENDBRANCH  40  41
ENDBRANCH  39  40
ENDBRANCH  27  39
BRANCH  11  45
HETATM   45  C   UNK     0     -20.002  11.429  -7.178  0.00  0.00     0.051 C 
BRANCH  45  46
HETATM   46  C   UNK     0     -20.252  12.170  -5.915  0.00  0.00     0.114 C 
BRANCH  46  47
HETATM   47  C   UNK     0     -21.068  11.283  -5.037  0.00  0.00     0.139 C 
HETATM   48  O   UNK     0     -22.281  11.511  -4.928  0.00  0.00    -0.650 OA
BRANCH  47  49
HETATM   49  O   UNK     0     -20.490  10.237  -4.363  0.00  0.00    -0.776 OA
HETATM   50  H   UNK     0     -20.774   9.263  -4.521  0.00  0.00     0.167 HD
ENDBRANCH  47  49
ENDBRANCH  46  47
ENDBRANCH  45  46
ENDBRANCH  11  45
BRANCH  18  51
HETATM   51  C   UNK     0     -14.680   9.951 -11.450  0.00  0.00     0.051 C 
BRANCH  51  52
HETATM   52  C   UNK     0     -15.504   8.721 -11.802  0.00  0.00     0.114 C 
BRANCH  52  53
HETATM   53  C   UNK     0     -15.027   8.078 -13.042  0.00  0.00     0.139 C 
HETATM   54  O   UNK     0     -14.478   6.965 -12.993  0.00  0.00    -0.650 OA
BRANCH  53  55
HETATM   55  O   UNK     0     -15.193   8.717 -14.246  0.00  0.00    -0.776 OA
HETATM   56  H   UNK     0     -15.129   9.695 -14.401  0.00  0.00     0.167 HD
ENDBRANCH  53  55
ENDBRANCH  52  53
ENDBRANCH  51  52
ENDBRANCH  18  51
TORSDOF 16
ENDMDL
MODEL 14
REMARK VINA RESULT:      -7.1     17.706     21.490
REMARK  16 active torsions:
REMARK  status: ('A' for Active; 'I' for Inactive)
REMARK    1  A    between atoms: C_6  and  C_7 
REMARK    2  A    between atoms: C_7  and  C_8 
REMARK    3  A    between atoms: C_8  and  C_9 
REMARK    4  A    between atoms: C_9  and  O_11 
REMARK    5  A    between atoms: C_16  and  C_17 
REMARK    6  A    between atoms: C_17  and  C_18 
REMARK    7  A    between atoms: C_18  and  C_19 
REMARK    8  A    between atoms: C_19  and  O_21 
REMARK    9  A    between atoms: C_28  and  C_29 
REMARK   10  A    between atoms: C_29  and  C_30 
REMARK   11  A    between atoms: C_30  and  C_31 
REMARK   12  A    between atoms: C_31  and  O_33 
REMARK   13  A    between atoms: C_42  and  C_43 
REMARK   14  A    between atoms: C_43  and  C_44 
REMARK   15  A    between atoms: C_44  and  C_45 
REMARK   16  A    between atoms: C_45  and  O_47 
ROOT
HETATM    1  C   UNK     0     -12.386   8.858  -0.373  0.00  0.00     0.051 C 
HETATM    2  C   UNK     0     -13.067   7.875   0.557  0.00  0.00    -0.031 A 
HETATM    3  C   UNK     0     -12.568   6.717   1.134  0.00  0.00     0.021 A 
HETATM    4  N   UNK     0     -13.543   6.135   1.871  0.00  0.00    -0.361 N 
HETATM    5  C   UNK     0     -14.650   6.901   1.784  0.00  0.00     0.022 A 
HETATM    6  C   UNK     0     -14.389   7.996   0.967  0.00  0.00    -0.027 A 
HETATM    7  C   UNK     0     -15.967   6.753   2.481  0.00  0.00     0.115 C 
HETATM    8  C   UNK     0     -15.921   6.379   3.952  0.00  0.00     0.021 A 
HETATM    9  N   UNK     0     -15.029   6.753   4.883  0.00  0.00    -0.361 N 
HETATM   10  C   UNK     0     -15.324   6.108   6.031  0.00  0.00     0.022 A 
HETATM   11  C   UNK     0     -16.443   5.303   5.837  0.00  0.00    -0.027 A 
HETATM   12  C   UNK     0     -16.824   5.469   4.530  0.00  0.00    -0.031 A 
HETATM   13  C   UNK     0     -18.003   4.790   3.870  0.00  0.00     0.051 C 
HETATM   14  C   UNK     0     -14.536   6.182   7.335  0.00  0.00     0.115 C 
HETATM   15  C   UNK     0     -13.100   5.699   7.215  0.00  0.00     0.021 A 
HETATM   16  N   UNK     0     -12.139   6.175   6.402  0.00  0.00    -0.361 N 
HETATM   17  C   UNK     0     -11.037   5.436   6.546  0.00  0.00     0.022 A 
HETATM   18  C   UNK     0     -11.288   4.437   7.507  0.00  0.00    -0.027 A 
HETATM   19  C   UNK     0     -12.584   4.614   7.920  0.00  0.00    -0.031 A 
HETATM   20  C   UNK     0     -13.254   3.764   8.984  0.00  0.00     0.051 C 
HETATM   21  C   UNK     0      -9.714   5.510   5.817  0.00  0.00     0.115 C 
HETATM   22  C   UNK     0      -9.741   5.924   4.364  0.00  0.00     0.022 A 
HETATM   23  N   UNK     0     -10.619   5.570   3.417  0.00  0.00    -0.361 N 
HETATM   24  C   UNK     0     -10.353   6.284   2.304  0.00  0.00     0.021 A 
HETATM   25  C   UNK     0      -9.270   7.110   2.538  0.00  0.00    -0.031 A 
HETATM   26  C   UNK     0      -8.576   8.064   1.588  0.00  0.00     0.051 C 
HETATM   27  C   UNK     0      -8.861   6.897   3.850  0.00  0.00    -0.027 A 
HETATM   28  C   UNK     0     -11.131   6.298   1.000  0.00  0.00     0.115 C 
HETATM   29  H   UNK     0     -13.454   5.167   2.415  0.00  0.00     0.165 HD
HETATM   30  H   UNK     0     -14.219   7.511   4.746  0.00  0.00     0.165 HD
HETATM   31  H   UNK     0     -12.224   7.081   5.746  0.00  0.00     0.165 HD
HETATM   32  H   UNK     0     -11.410   4.780   3.511  0.00  0.00     0.165 HD
ENDROOT
BRANCH   6  33
HETATM   33  C   UNK     0     -15.288   9.132   0.551  0.00  0.00     0.051 C 
BRANCH  33  34
HETATM   34  C   UNK     0     -16.147   8.732  -0.625  0.00  0.00     0.114 C 
BRANCH  34  35
HETATM   35  C   UNK     0     -17.031   9.888  -0.946  0.00  0.00     0.139 C 
HETATM   36  O   UNK     0     -16.706  11.058  -0.588  0.00  0.00    -0.650 OA
BRANCH  35  37
HETATM   37  O   UNK     0     -18.227   9.747  -1.640  0.00  0.00    -0.776 OA
HETATM   38  H   UNK     0     -18.616  10.494  -2.192  0.00  0.00     0.167 HD
ENDBRANCH  35  37
ENDBRANCH  34  35
ENDBRANCH  33  34
ENDBRANCH   6  33
BRANCH  27  39
HETATM   39  C   UNK     0      -7.670   7.562   4.445  0.00  0.00     0.051 C 
BRANCH  39  40
HETATM   40  C   UNK     0      -6.444   6.779   4.600  0.00  0.00     0.114 C 
BRANCH  40  41
HETATM   41  C   UNK     0      -6.275   5.481   3.987  0.00  0.00     0.139 C 
HETATM   42  O   UNK     0      -5.871   5.320   2.827  0.00  0.00    -0.650 OA
BRANCH  41  43
HETATM   43  O   UNK     0      -6.587   4.315   4.741  0.00  0.00    -0.776 OA
HETATM   44  H   UNK     0      -7.503   3.927   4.554  0.00  0.00     0.167 HD
ENDBRANCH  41  43
ENDBRANCH  40  41
ENDBRANCH  39  40
ENDBRANCH  27  39
BRANCH  11  45
HETATM   45  C   UNK     0     -17.143   4.409   6.826  0.00  0.00     0.051 C 
BRANCH  45  46
HETATM   46  C   UNK     0     -16.492   3.088   7.015  0.00  0.00     0.114 C 
BRANCH  46  47
HETATM   47  C   UNK     0     -17.461   2.049   6.561  0.00  0.00     0.139 C 
HETATM   48  O   UNK     0     -17.025   0.940   6.224  0.00  0.00    -0.650 OA
BRANCH  47  49
HETATM   49  O   UNK     0     -18.806   2.315   6.515  0.00  0.00    -0.776 OA
HETATM   50  H   UNK     0     -19.208   2.978   5.841  0.00  0.00     0.167 HD
ENDBRANCH  47  49
ENDBRANCH  46  47
ENDBRANCH  45  46
ENDBRANCH  11  45
BRANCH  18  51
HETATM   51  C   UNK     0     -10.340   3.385   8.020  0.00  0.00     0.051 C 
BRANCH  51  52
HETATM   52  C   UNK     0     -10.666   2.109   7.257  0.00  0.00     0.114 C 
BRANCH  52  53
HETATM   53  C   UNK     0      -9.632   1.790   6.254  0.00  0.00     0.139 C 
HETATM   54  O   UNK     0      -8.518   2.334   6.315  0.00  0.00    -0.650 OA
BRANCH  53  55
HETATM   55  O   UNK     0      -9.911   0.891   5.253  0.00  0.00    -0.776 OA
HETATM   56  H   UNK     0      -9.376   0.750   4.429  0.00  0.00     0.167 HD
ENDBRANCH  53  55
ENDBRANCH  52  53
ENDBRANCH  51  52
ENDBRANCH  18  51
TORSDOF 16
ENDMDL
MODEL 15
REMARK VINA RESULT:      -7.1     19.686     22.528
REMARK  16 active torsions:
REMARK  status: ('A' for Active; 'I' for Inactive)
REMARK    1  A    between atoms: C_6  and  C_7 
REMARK    2  A    between atoms: C_7  and  C_8 
REMARK    3  A    between atoms: C_8  and  C_9 
REMARK    4  A    between atoms: C_9  and  O_11 
REMARK    5  A    between atoms: C_16  and  C_17 
REMARK    6  A    between atoms: C_17  and  C_18 
REMARK    7  A    between atoms: C_18  and  C_19 
REMARK    8  A    between atoms: C_19  and  O_21 
REMARK    9  A    between atoms: C_28  and  C_29 
REMARK   10  A    between atoms: C_29  and  C_30 
REMARK   11  A    between atoms: C_30  and  C_31 
REMARK   12  A    between atoms: C_31  and  O_33 
REMARK   13  A    between atoms: C_42  and  C_43 
REMARK   14  A    between atoms: C_43  and  C_44 
REMARK   15  A    between atoms: C_44  and  C_45 
REMARK   16  A    between atoms: C_45  and  O_47 
ROOT
HETATM    1  C   UNK     0      -7.157   3.426   8.693  0.00  0.00     0.051 C 
HETATM    2  C   UNK     0      -8.051   3.534   7.474  0.00  0.00    -0.031 A 
HETATM    3  C   UNK     0      -9.279   2.941   7.228  0.00  0.00     0.021 A 
HETATM    4  N   UNK     0      -9.701   3.295   5.991  0.00  0.00    -0.361 N 
HETATM    5  C   UNK     0      -8.772   4.108   5.446  0.00  0.00     0.022 A 
HETATM    6  C   UNK     0      -7.725   4.277   6.346  0.00  0.00    -0.027 A 
HETATM    7  C   UNK     0      -8.798   4.845   4.143  0.00  0.00     0.115 C 
HETATM    8  C   UNK     0     -10.107   5.514   3.765  0.00  0.00     0.021 A 
HETATM    9  N   UNK     0     -11.003   6.112   4.566  0.00  0.00    -0.361 N 
HETATM   10  C   UNK     0     -12.058   6.484   3.810  0.00  0.00     0.022 A 
HETATM   11  C   UNK     0     -11.831   6.125   2.485  0.00  0.00    -0.027 A 
HETATM   12  C   UNK     0     -10.604   5.513   2.449  0.00  0.00    -0.031 A 
HETATM   13  C   UNK     0      -9.939   4.960   1.209  0.00  0.00     0.051 C 
HETATM   14  C   UNK     0     -13.339   7.142   4.314  0.00  0.00     0.115 C 
HETATM   15  C   UNK     0     -14.114   6.298   5.313  0.00  0.00     0.021 A 
HETATM   16  N   UNK     0     -13.683   5.824   6.496  0.00  0.00    -0.361 N 
HETATM   17  C   UNK     0     -14.639   5.068   7.041  0.00  0.00     0.022 A 
HETATM   18  C   UNK     0     -15.750   5.057   6.174  0.00  0.00    -0.027 A 
HETATM   19  C   UNK     0     -15.409   5.832   5.097  0.00  0.00    -0.031 A 
HETATM   20  C   UNK     0     -16.342   6.118   3.934  0.00  0.00     0.051 C 
HETATM   21  C   UNK     0     -14.629   4.257   8.317  0.00  0.00     0.115 C 
HETATM   22  C   UNK     0     -13.322   3.622   8.729  0.00  0.00     0.022 A 
HETATM   23  N   UNK     0     -12.409   3.023   7.953  0.00  0.00    -0.361 N 
HETATM   24  C   UNK     0     -11.334   2.731   8.712  0.00  0.00     0.021 A 
HETATM   25  C   UNK     0     -11.564   3.142  10.011  0.00  0.00    -0.031 A 
HETATM   26  C   UNK     0     -10.675   2.997  11.228  0.00  0.00     0.051 C 
HETATM   27  C   UNK     0     -12.830   3.715  10.047  0.00  0.00    -0.027 A 
HETATM   28  C   UNK     0     -10.012   2.133   8.261  0.00  0.00     0.115 C 
HETATM   29  H   UNK     0     -10.633   2.937   5.495  0.00  0.00     0.165 HD
HETATM   30  H   UNK     0     -10.871   6.318   5.656  0.00  0.00     0.165 HD
HETATM   31  H   UNK     0     -12.701   6.065   6.981  0.00  0.00     0.165 HD
HETATM   32  H   UNK     0     -12.533   2.762   6.869  0.00  0.00     0.165 HD
ENDROOT
BRANCH   6  33
HETATM   33  C   UNK     0      -6.454   5.077   6.217  0.00  0.00     0.051 C 
BRANCH  33  34
HETATM   34  C   UNK     0      -5.413   4.306   5.439  0.00  0.00     0.114 C 
BRANCH  34  35
HETATM   35  C   UNK     0      -4.329   3.933   6.393  0.00  0.00     0.139 C 
HETATM   36  O   UNK     0      -3.739   2.819   6.283  0.00  0.00    -0.650 OA
BRANCH  35  37
HETATM   37  O   UNK     0      -3.918   4.769   7.424  0.00  0.00    -0.776 OA
HETATM   38  H   UNK     0      -4.532   5.027   8.181  0.00  0.00     0.167 HD
ENDBRANCH  35  37
ENDBRANCH  34  35
ENDBRANCH  33  34
ENDBRANCH   6  33
BRANCH  27  39
HETATM   39  C   UNK     0     -13.459   4.213  11.300  0.00  0.00     0.051 C 
BRANCH  39  40
HETATM   40  C   UNK     0     -13.365   5.640  11.604  0.00  0.00     0.114 C 
BRANCH  40  41
HETATM   41  C   UNK     0     -12.710   6.576  10.717  0.00  0.00     0.139 C 
HETATM   42  O   UNK     0     -13.305   7.219   9.842  0.00  0.00    -0.650 OA
BRANCH  41  43
HETATM   43  O   UNK     0     -11.306   6.780  10.843  0.00  0.00    -0.776 OA
HETATM   44  H   UNK     0     -10.765   5.928  10.929  0.00  0.00     0.167 HD
ENDBRANCH  41  43
ENDBRANCH  40  41
ENDBRANCH  39  40
ENDBRANCH  27  39
BRANCH  11  45
HETATM   45  C   UNK     0     -12.716   6.339   1.287  0.00  0.00     0.051 C 
BRANCH  45  46
HETATM   46  C   UNK     0     -12.557   7.670   0.646  0.00  0.00     0.114 C 
BRANCH  46  47
HETATM   47  C   UNK     0     -13.741   7.881  -0.235  0.00  0.00     0.139 C 
HETATM   48  O   UNK     0     -14.180   6.917  -0.878  0.00  0.00    -0.650 OA
BRANCH  47  49
HETATM   49  O   UNK     0     -14.332   9.115  -0.334  0.00  0.00    -0.776 OA
HETATM   50  H   UNK     0     -13.870   9.905  -0.799  0.00  0.00     0.167 HD
ENDBRANCH  47  49
ENDBRANCH  46  47
ENDBRANCH  45  46
ENDBRANCH  11  45
BRANCH  18  51
HETATM   51  C   UNK     0     -17.073   4.364   6.373  0.00  0.00     0.051 C 
BRANCH  51  52
HETATM   52  C   UNK     0     -16.976   3.040   5.630  0.00  0.00     0.114 C 
BRANCH  52  53
HETATM   53  C   UNK     0     -17.353   1.899   6.487  0.00  0.00     0.139 C 
HETATM   54  O   UNK     0     -18.129   2.068   7.441  0.00  0.00    -0.650 OA
BRANCH  53  55
HETATM   55  O   UNK     0     -16.838   0.653   6.224  0.00  0.00    -0.776 OA
HETATM   56  H   UNK     0     -16.991  -0.167   6.762  0.00  0.00     0.167 HD
ENDBRANCH  53  55
ENDBRANCH  52  53
ENDBRANCH  51  52
ENDBRANCH  18  51
TORSDOF 16
ENDMDL
MODEL 16
REMARK VINA RESULT:      -7.1     16.066     20.008
REMARK  16 active torsions:
REMARK  status: ('A' for Active; 'I' for Inactive)
REMARK    1  A    between atoms: C_6  and  C_7 
REMARK    2  A    between atoms: C_7  and  C_8 
REMARK    3  A    between atoms: C_8  and  C_9 
REMARK    4  A    between atoms: C_9  and  O_11 
REMARK    5  A    between atoms: C_16  and  C_17 
REMARK    6  A    between atoms: C_17  and  C_18 
REMARK    7  A    between atoms: C_18  and  C_19 
REMARK    8  A    between atoms: C_19  and  O_21 
REMARK    9  A    between atoms: C_28  and  C_29 
REMARK   10  A    between atoms: C_29  and  C_30 
REMARK   11  A    between atoms: C_30  and  C_31 
REMARK   12  A    between atoms: C_31  and  O_33 
REMARK   13  A    between atoms: C_42  and  C_43 
REMARK   14  A    between atoms: C_43  and  C_44 
REMARK   15  A    between atoms: C_44  and  C_45 
REMARK   16  A    between atoms: C_45  and  O_47 
ROOT
HETATM    1  C   UNK     0     -16.618   9.216  -0.869  0.00  0.00     0.051 C 
HETATM    2  C   UNK     0     -16.721   8.253   0.296  0.00  0.00    -0.031 A 
HETATM    3  C   UNK     0     -15.918   7.170   0.615  0.00  0.00     0.021 A 
HETATM    4  N   UNK     0     -16.403   6.575   1.731  0.00  0.00    -0.361 N 
HETATM    5  C   UNK     0     -17.493   7.261   2.134  0.00  0.00     0.022 A 
HETATM    6  C   UNK     0     -17.722   8.315   1.257  0.00  0.00    -0.027 A 
HETATM    7  C   UNK     0     -18.336   7.074   3.357  0.00  0.00     0.115 C 
HETATM    8  C   UNK     0     -17.601   6.799   4.657  0.00  0.00     0.021 A 
HETATM    9  N   UNK     0     -16.422   7.289   5.070  0.00  0.00    -0.361 N 
HETATM   10  C   UNK     0     -16.113   6.701   6.245  0.00  0.00     0.022 A 
HETATM   11  C   UNK     0     -17.125   5.815   6.603  0.00  0.00    -0.027 A 
HETATM   12  C   UNK     0     -18.066   5.873   5.607  0.00  0.00    -0.031 A 
HETATM   13  C   UNK     0     -19.352   5.078   5.573  0.00  0.00     0.051 C 
HETATM   14  C   UNK     0     -14.832   6.909   7.048  0.00  0.00     0.115 C 
HETATM   15  C   UNK     0     -13.567   6.512   6.303  0.00  0.00     0.021 A 
HETATM   16  N   UNK     0     -13.120   6.995   5.129  0.00  0.00    -0.361 N 
HETATM   17  C   UNK     0     -12.011   6.339   4.779  0.00  0.00     0.022 A 
HETATM   18  C   UNK     0     -11.717   5.390   5.777  0.00  0.00    -0.027 A 
HETATM   19  C   UNK     0     -12.698   5.509   6.727  0.00  0.00    -0.031 A 
HETATM   20  C   UNK     0     -12.741   4.689   8.003  0.00  0.00     0.051 C 
HETATM   21  C   UNK     0     -11.171   6.451   3.527  0.00  0.00     0.115 C 
HETATM   22  C   UNK     0     -11.884   6.767   2.233  0.00  0.00     0.022 A 
HETATM   23  N   UNK     0     -13.060   6.298   1.798  0.00  0.00    -0.361 N 
HETATM   24  C   UNK     0     -13.385   6.955   0.666  0.00  0.00     0.021 A 
HETATM   25  C   UNK     0     -12.389   7.861   0.360  0.00  0.00    -0.031 A 
HETATM   26  C   UNK     0     -12.282   8.795  -0.828  0.00  0.00     0.051 C 
HETATM   27  C   UNK     0     -11.417   7.760   1.348  0.00  0.00    -0.027 A 
HETATM   28  C   UNK     0     -14.665   6.835  -0.143  0.00  0.00     0.115 C 
HETATM   29  H   UNK     0     -15.996   5.651   2.203  0.00  0.00     0.165 HD
HETATM   30  H   UNK     0     -15.829   8.087   4.560  0.00  0.00     0.165 HD
HETATM   31  H   UNK     0     -13.568   7.850   4.558  0.00  0.00     0.165 HD
HETATM   32  H   UNK     0     -13.652   5.467   2.262  0.00  0.00     0.165 HD
ENDROOT
BRANCH   6  33
HETATM   33  C   UNK     0     -18.806   9.363   1.262  0.00  0.00     0.051 C 
BRANCH  33  34
HETATM   34  C   UNK     0     -18.290  10.665   1.827  0.00  0.00     0.114 C 
BRANCH  34  35
HETATM   35  C   UNK     0     -18.331  10.555   3.313  0.00  0.00     0.139 C 
HETATM   36  O   UNK     0     -19.427  10.686   3.932  0.00  0.00    -0.650 OA
BRANCH  35  37
HETATM   37  O   UNK     0     -17.198  10.305   4.078  0.00  0.00    -0.776 OA
HETATM   38  H   UNK     0     -16.951  10.876   4.870  0.00  0.00     0.167 HD
ENDBRANCH  35  37
ENDBRANCH  34  35
ENDBRANCH  33  34
ENDBRANCH   6  33
BRANCH  27  39
HETATM   39  C   UNK     0     -10.147   8.536   1.320  0.00  0.00     0.051 C 
BRANCH  39  40
HETATM   40  C   UNK     0      -8.953   7.893   0.773  0.00  0.00     0.114 C 
BRANCH  40  41
HETATM   41  C   UNK     0      -9.019   6.942  -0.314  0.00  0.00     0.139 C 
HETATM   42  O   UNK     0      -9.233   5.733  -0.152  0.00  0.00    -0.650 OA
BRANCH  41  43
HETATM   43  O   UNK     0      -8.830   7.403  -1.648  0.00  0.00    -0.776 OA
HETATM   44  H   UNK     0      -8.285   6.781  -2.233  0.00  0.00     0.167 HD
ENDBRANCH  41  43
ENDBRANCH  40  41
ENDBRANCH  39  40
ENDBRANCH  27  39
BRANCH  11  45
HETATM   45  C   UNK     0     -17.225   4.944   7.827  0.00  0.00     0.051 C 
BRANCH  45  46
HETATM   46  C   UNK     0     -16.434   3.690   7.744  0.00  0.00     0.114 C 
BRANCH  46  47
HETATM   47  C   UNK     0     -17.273   2.684   7.034  0.00  0.00     0.139 C 
HETATM   48  O   UNK     0     -18.220   2.166   7.643  0.00  0.00    -0.650 OA
BRANCH  47  49
HETATM   49  O   UNK     0     -17.005   2.336   5.734  0.00  0.00    -0.776 OA
HETATM   50  H   UNK     0     -16.891   1.358   5.443  0.00  0.00     0.167 HD
ENDBRANCH  47  49
ENDBRANCH  46  47
ENDBRANCH  45  46
ENDBRANCH  11  45
BRANCH  18  51
HETATM   51  C   UNK     0     -10.552   4.435   5.833  0.00  0.00     0.051 C 
BRANCH  51  52
HETATM   52  C   UNK     0      -9.402   5.204   6.466  0.00  0.00     0.114 C 
BRANCH  52  53
HETATM   53  C   UNK     0      -8.172   4.392   6.537  0.00  0.00     0.139 C 
HETATM   54  O   UNK     0      -7.598   4.041   5.494  0.00  0.00    -0.650 OA
BRANCH  53  55
HETATM   55  O   UNK     0      -7.669   4.025   7.762  0.00  0.00    -0.776 OA
HETATM   56  H   UNK     0      -8.179   3.599   8.499  0.00  0.00     0.167 HD
ENDBRANCH  53  55
ENDBRANCH  52  53
ENDBRANCH  51  52
ENDBRANCH  18  51
TORSDOF 16
ENDMDL
MODEL 17
REMARK VINA RESULT:      -7.0     19.418     23.307
REMARK  16 active torsions:
REMARK  status: ('A' for Active; 'I' for Inactive)
REMARK    1  A    between atoms: C_6  and  C_7 
REMARK    2  A    between atoms: C_7  and  C_8 
REMARK    3  A    between atoms: C_8  and  C_9 
REMARK    4  A    between atoms: C_9  and  O_11 
REMARK    5  A    between atoms: C_16  and  C_17 
REMARK    6  A    between atoms: C_17  and  C_18 
REMARK    7  A    between atoms: C_18  and  C_19 
REMARK    8  A    between atoms: C_19  and  O_21 
REMARK    9  A    between atoms: C_28  and  C_29 
REMARK   10  A    between atoms: C_29  and  C_30 
REMARK   11  A    between atoms: C_30  and  C_31 
REMARK   12  A    between atoms: C_31  and  O_33 
REMARK   13  A    between atoms: C_42  and  C_43 
REMARK   14  A    between atoms: C_43  and  C_44 
REMARK   15  A    between atoms: C_44  and  C_45 
REMARK   16  A    between atoms: C_45  and  O_47 
ROOT
HETATM    1  C   UNK     0      -7.566   7.457  -0.619  0.00  0.00     0.051 C 
HETATM    2  C   UNK     0      -8.867   7.049   0.042  0.00  0.00    -0.031 A 
HETATM    3  C   UNK     0      -9.156   5.921   0.794  0.00  0.00     0.021 A 
HETATM    4  N   UNK     0     -10.459   5.956   1.159  0.00  0.00    -0.361 N 
HETATM    5  C   UNK     0     -11.005   7.086   0.664  0.00  0.00     0.022 A 
HETATM    6  C   UNK     0     -10.037   7.792  -0.042  0.00  0.00    -0.027 A 
HETATM    7  C   UNK     0     -12.381   7.644   0.858  0.00  0.00     0.115 C 
HETATM    8  C   UNK     0     -12.954   7.570   2.262  0.00  0.00     0.021 A 
HETATM    9  N   UNK     0     -12.314   7.700   3.435  0.00  0.00    -0.361 N 
HETATM   10  C   UNK     0     -13.201   7.470   4.425  0.00  0.00     0.022 A 
HETATM   11  C   UNK     0     -14.450   7.192   3.876  0.00  0.00    -0.027 A 
HETATM   12  C   UNK     0     -14.301   7.254   2.514  0.00  0.00    -0.031 A 
HETATM   13  C   UNK     0     -15.402   7.026   1.503  0.00  0.00     0.051 C 
HETATM   14  C   UNK     0     -12.898   7.449   5.920  0.00  0.00     0.115 C 
HETATM   15  C   UNK     0     -11.886   6.391   6.329  0.00  0.00     0.021 A 
HETATM   16  N   UNK     0     -10.620   6.253   5.890  0.00  0.00    -0.361 N 
HETATM   17  C   UNK     0     -10.084   5.159   6.436  0.00  0.00     0.022 A 
HETATM   18  C   UNK     0     -11.043   4.561   7.278  0.00  0.00    -0.027 A 
HETATM   19  C   UNK     0     -12.166   5.343   7.203  0.00  0.00    -0.031 A 
HETATM   20  C   UNK     0     -13.436   5.074   7.990  0.00  0.00     0.051 C 
HETATM   21  C   UNK     0      -8.728   4.528   6.217  0.00  0.00     0.115 C 
HETATM   22  C   UNK     0      -8.126   4.632   4.835  0.00  0.00     0.022 A 
HETATM   23  N   UNK     0      -8.740   4.511   3.651  0.00  0.00    -0.361 N 
HETATM   24  C   UNK     0      -7.855   4.821   2.682  0.00  0.00     0.021 A 
HETATM   25  C   UNK     0      -6.639   5.140   3.255  0.00  0.00    -0.031 A 
HETATM   26  C   UNK     0      -5.336   5.513   2.580  0.00  0.00     0.051 C 
HETATM   27  C   UNK     0      -6.787   5.026   4.633  0.00  0.00    -0.027 A 
HETATM   28  C   UNK     0      -8.110   4.917   1.187  0.00  0.00     0.115 C 
HETATM   29  H   UNK     0     -10.995   5.163   1.730  0.00  0.00     0.165 HD
HETATM   30  H   UNK     0     -11.246   8.004   3.568  0.00  0.00     0.165 HD
HETATM   31  H   UNK     0     -10.077   6.968   5.219  0.00  0.00     0.165 HD
HETATM   32  H   UNK     0      -9.792   4.163   3.486  0.00  0.00     0.165 HD
ENDROOT
BRANCH   6  33
HETATM   33  C   UNK     0     -10.139   9.101  -0.784  0.00  0.00     0.051 C 
BRANCH  33  34
HETATM   34  C   UNK     0     -10.486   8.868  -2.235  0.00  0.00     0.114 C 
BRANCH  34  35
HETATM   35  C   UNK     0      -9.439   9.538  -3.058  0.00  0.00     0.139 C 
HETATM   36  O   UNK     0      -9.294  10.794  -3.007  0.00  0.00    -0.650 OA
BRANCH  35  37
HETATM   37  O   UNK     0      -8.586   8.835  -3.901  0.00  0.00    -0.776 OA
HETATM   38  H   UNK     0      -8.616   7.831  -3.976  0.00  0.00     0.167 HD
ENDBRANCH  35  37
ENDBRANCH  34  35
ENDBRANCH  33  34
ENDBRANCH   6  33
BRANCH  27  39
HETATM   39  C   UNK     0      -5.664   5.224   5.588  0.00  0.00     0.051 C 
BRANCH  39  40
HETATM   40  C   UNK     0      -4.946   4.044   6.070  0.00  0.00     0.114 C 
BRANCH  40  41
HETATM   41  C   UNK     0      -5.417   3.261   7.190  0.00  0.00     0.139 C 
HETATM   42  O   UNK     0      -5.241   3.585   8.373  0.00  0.00    -0.650 OA
BRANCH  41  43
HETATM   43  O   UNK     0      -6.122   2.049   6.939  0.00  0.00    -0.776 OA
HETATM   44  H   UNK     0      -7.061   2.177   6.582  0.00  0.00     0.167 HD
ENDBRANCH  41  43
ENDBRANCH  40  41
ENDBRANCH  39  40
ENDBRANCH  27  39
BRANCH  11  45
HETATM   45  C   UNK     0     -15.742   6.883   4.583  0.00  0.00     0.051 C 
BRANCH  45  46
HETATM   46  C   UNK     0     -15.869   5.470   5.022  0.00  0.00     0.114 C 
BRANCH  46  47
HETATM   47  C   UNK     0     -16.975   4.859   4.230  0.00  0.00     0.139 C 
HETATM   48  O   UNK     0     -17.826   5.606   3.727  0.00  0.00    -0.650 OA
BRANCH  47  49
HETATM   49  O   UNK     0     -17.052   3.499   4.063  0.00  0.00    -0.776 OA
HETATM   50  H   UNK     0     -17.935   2.986   4.170  0.00  0.00     0.167 HD
ENDBRANCH  47  49
ENDBRANCH  46  47
ENDBRANCH  45  46
ENDBRANCH  11  45
BRANCH  18  51
HETATM   51  C   UNK     0     -10.889   3.324   8.125  0.00  0.00     0.051 C 
BRANCH  51  52
HETATM   52  C   UNK     0     -10.714   2.164   7.156  0.00  0.00     0.114 C 
BRANCH  52  53
HETATM   53  C   UNK     0      -9.488   1.392   7.439  0.00  0.00     0.139 C 
HETATM   54  O   UNK     0      -8.775   1.693   8.409  0.00  0.00    -0.650 OA
BRANCH  53  55
HETATM   55  O   UNK     0      -9.141   0.345   6.621  0.00  0.00    -0.776 OA
HETATM   56  H   UNK     0      -9.090   0.369   5.630  0.00  0.00     0.167 HD
ENDBRANCH  53  55
ENDBRANCH  52  53
ENDBRANCH  51  52
ENDBRANCH  18  51
TORSDOF 16
ENDMDL
MODEL 18
REMARK VINA RESULT:      -7.0     18.638     24.553
REMARK  16 active torsions:
REMARK  status: ('A' for Active; 'I' for Inactive)
REMARK    1  A    between atoms: C_6  and  C_7 
REMARK    2  A    between atoms: C_7  and  C_8 
REMARK    3  A    between atoms: C_8  and  C_9 
REMARK    4  A    between atoms: C_9  and  O_11 
REMARK    5  A    between atoms: C_16  and  C_17 
REMARK    6  A    between atoms: C_17  and  C_18 
REMARK    7  A    between atoms: C_18  and  C_19 
REMARK    8  A    between atoms: C_19  and  O_21 
REMARK    9  A    between atoms: C_28  and  C_29 
REMARK   10  A    between atoms: C_29  and  C_30 
REMARK   11  A    between atoms: C_30  and  C_31 
REMARK   12  A    between atoms: C_31  and  O_33 
REMARK   13  A    between atoms: C_42  and  C_43 
REMARK   14  A    between atoms: C_43  and  C_44 
REMARK   15  A    between atoms: C_44  and  C_45 
REMARK   16  A    between atoms: C_45  and  O_47 
ROOT
HETATM    1  C   UNK     0     -38.049 -13.799   6.604  0.00  0.00     0.051 C 
HETATM    2  C   UNK     0     -37.436 -13.931   5.225  0.00  0.00    -0.031 A 
HETATM    3  C   UNK     0     -37.190 -12.953   4.274  0.00  0.00     0.021 A 
HETATM    4  N   UNK     0     -36.657 -13.533   3.172  0.00  0.00    -0.361 N 
HETATM    5  C   UNK     0     -36.551 -14.857   3.403  0.00  0.00     0.022 A 
HETATM    6  C   UNK     0     -37.032 -15.142   4.677  0.00  0.00    -0.027 A 
HETATM    7  C   UNK     0     -35.944 -15.927   2.549  0.00  0.00     0.115 C 
HETATM    8  C   UNK     0     -34.631 -15.589   1.865  0.00  0.00     0.021 A 
HETATM    9  N   UNK     0     -33.618 -14.838   2.324  0.00  0.00    -0.361 N 
HETATM   10  C   UNK     0     -32.696 -14.734   1.343  0.00  0.00     0.022 A 
HETATM   11  C   UNK     0     -33.122 -15.445   0.226  0.00  0.00    -0.027 A 
HETATM   12  C   UNK     0     -34.341 -15.987   0.548  0.00  0.00    -0.031 A 
HETATM   13  C   UNK     0     -35.182 -16.850  -0.366  0.00  0.00     0.051 C 
HETATM   14  C   UNK     0     -31.407 -13.919   1.401  0.00  0.00     0.115 C 
HETATM   15  C   UNK     0     -31.629 -12.429   1.607  0.00  0.00     0.021 A 
HETATM   16  N   UNK     0     -32.264 -11.827   2.630  0.00  0.00    -0.361 N 
HETATM   17  C   UNK     0     -32.308 -10.512   2.405  0.00  0.00     0.022 A 
HETATM   18  C   UNK     0     -31.662 -10.243   1.182  0.00  0.00    -0.027 A 
HETATM   19  C   UNK     0     -31.240 -11.452   0.693  0.00  0.00    -0.031 A 
HETATM   20  C   UNK     0     -30.460 -11.614  -0.599  0.00  0.00     0.051 C 
HETATM   21  C   UNK     0     -32.966  -9.410   3.206  0.00  0.00     0.115 C 
HETATM   22  C   UNK     0     -34.250  -9.745   3.927  0.00  0.00     0.022 A 
HETATM   23  N   UNK     0     -35.274 -10.493   3.497  0.00  0.00    -0.361 N 
HETATM   24  C   UNK     0     -36.143 -10.648   4.516  0.00  0.00     0.021 A 
HETATM   25  C   UNK     0     -35.673  -9.974   5.626  0.00  0.00    -0.031 A 
HETATM   26  C   UNK     0     -36.313  -9.822   6.990  0.00  0.00     0.051 C 
HETATM   27  C   UNK     0     -34.463  -9.387   5.274  0.00  0.00    -0.027 A 
HETATM   28  C   UNK     0     -37.407 -11.490   4.539  0.00  0.00     0.115 C 
HETATM   29  H   UNK     0     -36.397 -13.007   2.224  0.00  0.00     0.165 HD
HETATM   30  H   UNK     0     -33.528 -14.421   3.357  0.00  0.00     0.165 HD
HETATM   31  H   UNK     0     -32.648 -12.334   3.553  0.00  0.00     0.165 HD
HETATM   32  H   UNK     0     -35.413 -10.884   2.455  0.00  0.00     0.165 HD
ENDROOT
BRANCH   6  33
HETATM   33  C   UNK     0     -37.137 -16.459   5.402  0.00  0.00     0.051 C 
BRANCH  33  34
HETATM   34  C   UNK     0     -35.856 -16.768   6.139  0.00  0.00     0.114 C 
BRANCH  34  35
HETATM   35  C   UNK     0     -36.229 -17.247   7.501  0.00  0.00     0.139 C 
HETATM   36  O   UNK     0     -36.243 -18.486   7.760  0.00  0.00    -0.650 OA
BRANCH  35  37
HETATM   37  O   UNK     0     -36.569 -16.380   8.533  0.00  0.00    -0.776 OA
HETATM   38  H   UNK     0     -37.256 -15.654   8.416  0.00  0.00     0.167 HD
ENDBRANCH  35  37
ENDBRANCH  34  35
ENDBRANCH  33  34
ENDBRANCH   6  33
BRANCH  27  39
HETATM   39  C   UNK     0     -33.687  -8.514   6.196  0.00  0.00     0.051 C 
BRANCH  39  40
HETATM   40  C   UNK     0     -33.523  -7.104   5.843  0.00  0.00     0.114 C 
BRANCH  40  41
HETATM   41  C   UNK     0     -34.639  -6.187   5.793  0.00  0.00     0.139 C 
HETATM   42  O   UNK     0     -35.801  -6.537   5.547  0.00  0.00    -0.650 OA
BRANCH  41  43
HETATM   43  O   UNK     0     -34.408  -4.804   6.038  0.00  0.00    -0.776 OA
HETATM   44  H   UNK     0     -33.432  -4.552   6.130  0.00  0.00     0.167 HD
ENDBRANCH  41  43
ENDBRANCH  40  41
ENDBRANCH  39  40
ENDBRANCH  27  39
BRANCH  11  45
HETATM   45  C   UNK     0     -32.429 -15.624  -1.098  0.00  0.00     0.051 C 
BRANCH  45  46
HETATM   46  C   UNK     0     -32.589 -14.476  -2.026  0.00  0.00     0.114 C 
BRANCH  46  47
HETATM   47  C   UNK     0     -32.745 -15.036  -3.399  0.00  0.00     0.139 C 
HETATM   48  O   UNK     0     -33.166 -14.293  -4.297  0.00  0.00    -0.650 OA
BRANCH  47  49
HETATM   49  O   UNK     0     -32.432 -16.345  -3.663  0.00  0.00    -0.776 OA
HETATM   50  H   UNK     0     -31.645 -16.821  -3.206  0.00  0.00     0.167 HD
ENDBRANCH  47  49
ENDBRANCH  46  47
ENDBRANCH  45  46
ENDBRANCH  11  45
BRANCH  18  51
HETATM   51  C   UNK     0     -31.440  -8.905   0.526  0.00  0.00     0.051 C 
BRANCH  51  52
HETATM   52  C   UNK     0     -30.259  -8.269   1.244  0.00  0.00     0.114 C 
BRANCH  52  53
HETATM   53  C   UNK     0     -29.211  -7.835   0.300  0.00  0.00     0.139 C 
HETATM   54  O   UNK     0     -28.458  -8.674  -0.221  0.00  0.00    -0.650 OA
BRANCH  53  55
HETATM   55  O   UNK     0     -29.071  -6.501   0.005  0.00  0.00    -0.776 OA
HETATM   56  H   UNK     0     -28.368  -6.100  -0.569  0.00  0.00     0.167 HD
ENDBRANCH  53  55
ENDBRANCH  52  53
ENDBRANCH  51  52
ENDBRANCH  18  51
TORSDOF 16
ENDMDL
MODEL 19
REMARK VINA RESULT:      -7.0      7.713     12.866
REMARK  16 active torsions:
REMARK  status: ('A' for Active; 'I' for Inactive)
REMARK    1  A    between atoms: C_6  and  C_7 
REMARK    2  A    between atoms: C_7  and  C_8 
REMARK    3  A    between atoms: C_8  and  C_9 
REMARK    4  A    between atoms: C_9  and  O_11 
REMARK    5  A    between atoms: C_16  and  C_17 
REMARK    6  A    between atoms: C_17  and  C_18 
REMARK    7  A    between atoms: C_18  and  C_19 
REMARK    8  A    between atoms: C_19  and  O_21 
REMARK    9  A    between atoms: C_28  and  C_29 
REMARK   10  A    between atoms: C_29  and  C_30 
REMARK   11  A    between atoms: C_30  and  C_31 
REMARK   12  A    between atoms: C_31  and  O_33 
REMARK   13  A    between atoms: C_42  and  C_43 
REMARK   14  A    between atoms: C_43  and  C_44 
REMARK   15  A    between atoms: C_44  and  C_45 
REMARK   16  A    between atoms: C_45  and  O_47 
ROOT
HETATM    1  C   UNK     0     -19.168  11.672  -7.624  0.00  0.00     0.051 C 
HETATM    2  C   UNK     0     -20.403  12.136  -8.368  0.00  0.00    -0.031 A 
HETATM    3  C   UNK     0     -21.737  11.844  -8.129  0.00  0.00     0.021 A 
HETATM    4  N   UNK     0     -22.498  12.455  -9.068  0.00  0.00    -0.361 N 
HETATM    5  C   UNK     0     -21.679  13.138  -9.895  0.00  0.00     0.022 A 
HETATM    6  C   UNK     0     -20.361  12.957  -9.488  0.00  0.00    -0.027 A 
HETATM    7  C   UNK     0     -22.019  14.049 -11.033  0.00  0.00     0.115 C 
HETATM    8  C   UNK     0     -23.169  15.016 -10.811  0.00  0.00     0.021 A 
HETATM    9  N   UNK     0     -23.518  15.655  -9.684  0.00  0.00    -0.361 N 
HETATM   10  C   UNK     0     -24.657  16.339  -9.925  0.00  0.00     0.022 A 
HETATM   11  C   UNK     0     -25.046  16.142 -11.247  0.00  0.00    -0.027 A 
HETATM   12  C   UNK     0     -24.113  15.310 -11.811  0.00  0.00    -0.031 A 
HETATM   13  C   UNK     0     -24.126  14.825 -13.243  0.00  0.00     0.051 C 
HETATM   14  C   UNK     0     -25.449  17.158  -8.910  0.00  0.00     0.115 C 
HETATM   15  C   UNK     0     -25.965  16.347  -7.733  0.00  0.00     0.021 A 
HETATM   16  N   UNK     0     -25.245  15.626  -6.853  0.00  0.00    -0.361 N 
HETATM   17  C   UNK     0     -26.075  15.005  -6.012  0.00  0.00     0.022 A 
HETATM   18  C   UNK     0     -27.399  15.345  -6.354  0.00  0.00    -0.027 A 
HETATM   19  C   UNK     0     -27.316  16.187  -7.432  0.00  0.00    -0.031 A 
HETATM   20  C   UNK     0     -28.521  16.824  -8.100  0.00  0.00     0.051 C 
HETATM   21  C   UNK     0     -25.777  14.028  -4.897  0.00  0.00     0.115 C 
HETATM   22  C   UNK     0     -24.608  13.090  -5.086  0.00  0.00     0.022 A 
HETATM   23  N   UNK     0     -24.234  12.442  -6.197  0.00  0.00    -0.361 N 
HETATM   24  C   UNK     0     -23.056  11.832  -5.956  0.00  0.00     0.021 A 
HETATM   25  C   UNK     0     -22.668  12.083  -4.654  0.00  0.00    -0.031 A 
HETATM   26  C   UNK     0     -21.447  11.583  -3.910  0.00  0.00     0.051 C 
HETATM   27  C   UNK     0     -23.645  12.886  -4.077  0.00  0.00    -0.027 A 
HETATM   28  C   UNK     0     -22.194  11.055  -6.935  0.00  0.00     0.115 C 
HETATM   29  H   UNK     0     -23.605  12.368  -9.163  0.00  0.00     0.165 HD
HETATM   30  H   UNK     0     -22.936  15.666  -8.730  0.00  0.00     0.165 HD
HETATM   31  H   UNK     0     -24.126  15.591  -6.795  0.00  0.00     0.165 HD
HETATM   32  H   UNK     0     -24.820  12.375  -7.151  0.00  0.00     0.165 HD
ENDROOT
BRANCH   6  33
HETATM   33  C   UNK     0     -19.082  13.497 -10.075  0.00  0.00     0.051 C 
BRANCH  33  34
HETATM   34  C   UNK     0     -18.755  14.852  -9.493  0.00  0.00     0.114 C 
BRANCH  34  35
HETATM   35  C   UNK     0     -18.379  15.746 -10.625  0.00  0.00     0.139 C 
HETATM   36  O   UNK     0     -19.125  16.717 -10.945  0.00  0.00    -0.650 OA
BRANCH  35  37
HETATM   37  O   UNK     0     -17.218  15.567 -11.368  0.00  0.00    -0.776 OA
HETATM   38  H   UNK     0     -16.716  16.342 -11.770  0.00  0.00     0.167 HD
ENDBRANCH  35  37
ENDBRANCH  34  35
ENDBRANCH  33  34
ENDBRANCH   6  33
BRANCH  27  39
HETATM   39  C   UNK     0     -23.609  13.308  -2.650  0.00  0.00     0.051 C 
BRANCH  39  40
HETATM   40  C   UNK     0     -23.781  12.285  -1.619  0.00  0.00     0.114 C 
BRANCH  40  41
HETATM   41  C   UNK     0     -22.781  12.036  -0.605  0.00  0.00     0.139 C 
HETATM   42  O   UNK     0     -22.441  12.876   0.240  0.00  0.00    -0.650 OA
BRANCH  41  43
HETATM   43  O   UNK     0     -22.143  10.765  -0.561  0.00  0.00    -0.776 OA
HETATM   44  H   UNK     0     -21.350  10.672  -1.185  0.00  0.00     0.167 HD
ENDBRANCH  41  43
ENDBRANCH  40  41
ENDBRANCH  39  40
ENDBRANCH  27  39
BRANCH  11  45
HETATM   45  C   UNK     0     -26.240  16.705 -11.971  0.00  0.00     0.051 C 
BRANCH  45  46
HETATM   46  C   UNK     0     -25.911  17.791 -12.930  0.00  0.00     0.114 C 
BRANCH  46  47
HETATM   47  C   UNK     0     -26.507  17.415 -14.244  0.00  0.00     0.139 C 
HETATM   48  O   UNK     0     -26.453  18.232 -15.174  0.00  0.00    -0.650 OA
BRANCH  47  49
HETATM   49  O   UNK     0     -27.104  16.192 -14.420  0.00  0.00    -0.776 OA
HETATM   50  H   UNK     0     -26.947  15.410 -13.773  0.00  0.00     0.167 HD
ENDBRANCH  47  49
ENDBRANCH  46  47
ENDBRANCH  45  46
ENDBRANCH  11  45
BRANCH  18  51
HETATM   51  C   UNK     0     -28.672  14.909  -5.676  0.00  0.00     0.051 C 
BRANCH  51  52
HETATM   52  C   UNK     0     -28.762  15.707  -4.384  0.00  0.00     0.114 C 
BRANCH  52  53
HETATM   53  C   UNK     0     -29.829  15.201  -3.499  0.00  0.00     0.139 C 
HETATM   54  O   UNK     0     -30.048  13.981  -3.425  0.00  0.00    -0.650 OA
BRANCH  53  55
HETATM   55  O   UNK     0     -30.577  16.086  -2.762  0.00  0.00    -0.776 OA
HETATM   56  H   UNK     0     -31.383  15.865  -2.226  0.00  0.00     0.167 HD
ENDBRANCH  53  55
ENDBRANCH  52  53
ENDBRANCH  51  52
ENDBRANCH  18  51
TORSDOF 16
ENDMDL
MODEL 20
REMARK VINA RESULT:      -7.0     13.077     18.891
REMARK  16 active torsions:
REMARK  status: ('A' for Active; 'I' for Inactive)
REMARK    1  A    between atoms: C_6  and  C_7 
REMARK    2  A    between atoms: C_7  and  C_8 
REMARK    3  A    between atoms: C_8  and  C_9 
REMARK    4  A    between atoms: C_9  and  O_11 
REMARK    5  A    between atoms: C_16  and  C_17 
REMARK    6  A    between atoms: C_17  and  C_18 
REMARK    7  A    between atoms: C_18  and  C_19 
REMARK    8  A    between atoms: C_19  and  O_21 
REMARK    9  A    between atoms: C_28  and  C_29 
REMARK   10  A    between atoms: C_29  and  C_30 
REMARK   11  A    between atoms: C_30  and  C_31 
REMARK   12  A    between atoms: C_31  and  O_33 
REMARK   13  A    between atoms: C_42  and  C_43 
REMARK   14  A    between atoms: C_43  and  C_44 
REMARK   15  A    between atoms: C_44  and  C_45 
REMARK   16  A    between atoms: C_45  and  O_47 
ROOT
HETATM    1  C   UNK     0     -19.197  11.152  -7.236  0.00  0.00     0.051 C 
HETATM    2  C   UNK     0     -19.348  12.104  -8.405  0.00  0.00    -0.031 A 
HETATM    3  C   UNK     0     -18.372  12.767  -9.131  0.00  0.00     0.021 A 
HETATM    4  N   UNK     0     -18.969  13.541 -10.069  0.00  0.00    -0.361 N 
HETATM    5  C   UNK     0     -20.304  13.378  -9.962  0.00  0.00     0.022 A 
HETATM    6  C   UNK     0     -20.576  12.488  -8.929  0.00  0.00    -0.027 A 
HETATM    7  C   UNK     0     -21.402  13.930 -10.816  0.00  0.00     0.115 C 
HETATM    8  C   UNK     0     -21.171  13.914 -12.317  0.00  0.00     0.021 A 
HETATM    9  N   UNK     0     -20.532  12.993 -13.055  0.00  0.00    -0.361 N 
HETATM   10  C   UNK     0     -20.489  13.433 -14.330  0.00  0.00     0.022 A 
HETATM   11  C   UNK     0     -21.126  14.668 -14.418  0.00  0.00    -0.027 A 
HETATM   12  C   UNK     0     -21.558  14.976 -13.153  0.00  0.00    -0.031 A 
HETATM   13  C   UNK     0     -22.312  16.230 -12.769  0.00  0.00     0.051 C 
HETATM   14  C   UNK     0     -19.802  12.737 -15.501  0.00  0.00     0.115 C 
HETATM   15  C   UNK     0     -18.304  12.555 -15.317  0.00  0.00     0.021 A 
HETATM   16  N   UNK     0     -17.673  11.897 -14.326  0.00  0.00    -0.361 N 
HETATM   17  C   UNK     0     -16.354  12.026 -14.485  0.00  0.00     0.022 A 
HETATM   18  C   UNK     0     -16.114  12.797 -15.640  0.00  0.00    -0.027 A 
HETATM   19  C   UNK     0     -17.343  13.121 -16.152  0.00  0.00    -0.031 A 
HETATM   20  C   UNK     0     -17.543  13.921 -17.426  0.00  0.00     0.051 C 
HETATM   21  C   UNK     0     -15.218  11.542 -13.612  0.00  0.00     0.115 C 
HETATM   22  C   UNK     0     -15.448  11.512 -12.120  0.00  0.00     0.022 A 
HETATM   23  N   UNK     0     -16.084  12.413 -11.360  0.00  0.00    -0.361 N 
HETATM   24  C   UNK     0     -16.184  11.918 -10.110  0.00  0.00     0.021 A 
HETATM   25  C   UNK     0     -15.589  10.672 -10.061  0.00  0.00    -0.031 A 
HETATM   26  C   UNK     0     -15.414   9.745  -8.877  0.00  0.00     0.051 C 
HETATM   27  C   UNK     0     -15.110  10.391 -11.336  0.00  0.00    -0.027 A 
HETATM   28  C   UNK     0     -16.903  12.533  -8.921  0.00  0.00     0.115 C 
HETATM   29  H   UNK     0     -18.444  14.227 -10.774  0.00  0.00     0.165 HD
HETATM   30  H   UNK     0     -20.154  12.007 -12.688  0.00  0.00     0.165 HD
HETATM   31  H   UNK     0     -18.166  11.289 -13.524  0.00  0.00     0.165 HD
HETATM   32  H   UNK     0     -16.431  13.427 -11.689  0.00  0.00     0.165 HD
ENDROOT
BRANCH   6  33
HETATM   33  C   UNK     0     -21.897  11.982  -8.407  0.00  0.00     0.051 C 
BRANCH  33  34
HETATM   34  C   UNK     0     -22.426  12.889  -7.321  0.00  0.00     0.114 C 
BRANCH  34  35
HETATM   35  C   UNK     0     -23.792  12.410  -6.964  0.00  0.00     0.139 C 
HETATM   36  O   UNK     0     -24.170  11.252  -7.306  0.00  0.00    -0.650 OA
BRANCH  35  37
HETATM   37  O   UNK     0     -24.697  13.188  -6.252  0.00  0.00    -0.776 OA
HETATM   38  H   UNK     0     -25.493  13.620  -6.693  0.00  0.00     0.167 HD
ENDBRANCH  35  37
ENDBRANCH  34  35
ENDBRANCH  33  34
ENDBRANCH   6  33
BRANCH  27  39
HETATM   39  C   UNK     0     -14.340   9.159 -11.659  0.00  0.00     0.051 C 
BRANCH  39  40
HETATM   40  C   UNK     0     -15.068   8.002 -12.179  0.00  0.00     0.114 C 
BRANCH  40  41
HETATM   41  C   UNK     0     -14.958   7.578 -13.557  0.00  0.00     0.139 C 
HETATM   42  O   UNK     0     -15.814   6.892 -14.131  0.00  0.00    -0.650 OA
BRANCH  41  43
HETATM   43  O   UNK     0     -13.811   7.961 -14.308  0.00  0.00    -0.776 OA
HETATM   44  H   UNK     0     -13.918   7.871 -15.311  0.00  0.00     0.167 HD
ENDBRANCH  41  43
ENDBRANCH  40  41
ENDBRANCH  39  40
ENDBRANCH  27  39
BRANCH  11  45
HETATM   45  C   UNK     0     -21.333  15.536 -15.629  0.00  0.00     0.051 C 
BRANCH  45  46
HETATM   46  C   UNK     0     -22.598  15.267 -16.359  0.00  0.00     0.114 C 
BRANCH  46  47
HETATM   47  C   UNK     0     -22.231  14.648 -17.666  0.00  0.00     0.139 C 
HETATM   48  O   UNK     0     -21.090  14.836 -18.110  0.00  0.00    -0.650 OA
BRANCH  47  49
HETATM   49  O   UNK     0     -23.136  13.889 -18.362  0.00  0.00    -0.776 OA
HETATM   50  H   UNK     0     -23.309  12.902 -18.136  0.00  0.00     0.167 HD
ENDBRANCH  47  49
ENDBRANCH  46  47
ENDBRANCH  45  46
ENDBRANCH  11  45
BRANCH  18  51
HETATM   51  C   UNK     0     -14.785  13.186 -16.234  0.00  0.00     0.051 C 
BRANCH  51  52
HETATM   52  C   UNK     0     -14.445  12.113 -17.257  0.00  0.00     0.114 C 
BRANCH  52  53
HETATM   53  C   UNK     0     -13.427  11.173 -16.750  0.00  0.00     0.139 C 
HETATM   54  O   UNK     0     -13.741  10.003 -16.478  0.00  0.00    -0.650 OA
BRANCH  53  55
HETATM   55  O   UNK     0     -12.133  11.601 -16.579  0.00  0.00    -0.776 OA
HETATM   56  H   UNK     0     -11.566  12.037 -17.267  0.00  0.00     0.167 HD
ENDBRANCH  53  55
ENDBRANCH  52  53
ENDBRANCH  51  52
ENDBRANCH  18  51
TORSDOF 16
ENDMDL
