MODEL 1
REMARK VINA RESULT:      -9.8      0.000      0.000
REMARK  16 active torsions:
REMARK  status: ('A' for Active; 'I' for Inactive)
REMARK    1  A    between atoms: C_6  and  C_7 
REMARK    2  A    between atoms: C_7  and  C_8 
REMARK    3  A    between atoms: C_8  and  C_9 
REMARK    4  A    between atoms: C_9  and  O_11 
REMARK    5  A    between atoms: C_16  and  C_17 
REMARK    6  A    between atoms: C_17  and  C_18 
REMARK    7  A    between atoms: C_18  and  C_19 
REMARK    8  A    between atoms: C_19  and  O_21 
REMARK    9  A    between atoms: C_28  and  C_29 
REMARK   10  A    between atoms: C_29  and  C_30 
REMARK   11  A    between atoms: C_30  and  C_31 
REMARK   12  A    between atoms: C_31  and  O_33 
REMARK   13  A    between atoms: C_42  and  C_43 
REMARK   14  A    between atoms: C_43  and  C_44 
REMARK   15  A    between atoms: C_44  and  C_45 
REMARK   16  A    between atoms: C_45  and  O_47 
ROOT
HETATM    1  C   UNK     0     -15.576   0.433  -5.499  0.00  0.00     0.051 C 
HETATM    2  C   UNK     0     -14.531   0.217  -6.574  0.00  0.00    -0.031 A 
HETATM    3  C   UNK     0     -14.141  -0.957  -7.199  0.00  0.00     0.021 A 
HETATM    4  N   UNK     0     -13.147  -0.681  -8.077  0.00  0.00    -0.361 N 
HETATM    5  C   UNK     0     -12.902   0.645  -8.032  0.00  0.00     0.022 A 
HETATM    6  C   UNK     0     -13.748   1.237  -7.100  0.00  0.00    -0.027 A 
HETATM    7  C   UNK     0     -11.972   1.469  -8.866  0.00  0.00     0.115 C 
HETATM    8  C   UNK     0     -11.935   1.162 -10.352  0.00  0.00     0.021 A 
HETATM    9  N   UNK     0     -12.943   0.786 -11.154  0.00  0.00    -0.361 N 
HETATM   10  C   UNK     0     -12.434   0.533 -12.378  0.00  0.00     0.022 A 
HETATM   11  C   UNK     0     -11.061   0.761 -12.367  0.00  0.00    -0.027 A 
HETATM   12  C   UNK     0     -10.740   1.158 -11.094  0.00  0.00    -0.031 A 
HETATM   13  C   UNK     0      -9.352   1.520 -10.616  0.00  0.00     0.051 C 
HETATM   14  C   UNK     0     -13.209   0.016 -13.587  0.00  0.00     0.115 C 
HETATM   15  C   UNK     0     -13.855  -1.342 -13.370  0.00  0.00     0.021 A 
HETATM   16  N   UNK     0     -14.754  -1.683 -12.427  0.00  0.00    -0.361 N 
HETATM   17  C   UNK     0     -15.022  -2.987 -12.527  0.00  0.00     0.022 A 
HETATM   18  C   UNK     0     -14.269  -3.519 -13.593  0.00  0.00    -0.027 A 
HETATM   19  C   UNK     0     -13.544  -2.479 -14.113  0.00  0.00    -0.031 A 
HETATM   20  C   UNK     0     -12.619  -2.610 -15.310  0.00  0.00     0.051 C 
HETATM   21  C   UNK     0     -15.900  -3.867 -11.668  0.00  0.00     0.115 C 
HETATM   22  C   UNK     0     -15.981  -3.546 -10.194  0.00  0.00     0.022 A 
HETATM   23  N   UNK     0     -14.994  -3.165  -9.372  0.00  0.00    -0.361 N 
HETATM   24  C   UNK     0     -15.536  -2.843  -8.180  0.00  0.00     0.021 A 
HETATM   25  C   UNK     0     -16.904  -3.031  -8.233  0.00  0.00    -0.031 A 
HETATM   26  C   UNK     0     -17.934  -2.844  -7.139  0.00  0.00     0.051 C 
HETATM   27  C   UNK     0     -17.212  -3.480  -9.511  0.00  0.00    -0.027 A 
HETATM   28  C   UNK     0     -14.830  -2.271  -6.963  0.00  0.00     0.115 C 
HETATM   29  H   UNK     0     -12.600  -1.431  -8.694  0.00  0.00     0.165 HD
HETATM   30  H   UNK     0     -14.024   0.747 -10.872  0.00  0.00     0.165 HD
HETATM   31  H   UNK     0     -15.245  -0.979 -11.705  0.00  0.00     0.165 HD
HETATM   32  H   UNK     0     -13.899  -3.161  -9.613  0.00  0.00     0.165 HD
ENDROOT
BRANCH   6  33
HETATM   33  C   UNK     0     -13.865   2.679  -6.675  0.00  0.00     0.051 C 
BRANCH  33  34
HETATM   34  C   UNK     0     -14.792   3.434  -7.597  0.00  0.00     0.114 C 
BRANCH  34  35
HETATM   35  C   UNK     0     -14.662   4.884  -7.271  0.00  0.00     0.139 C 
HETATM   36  O   UNK     0     -15.545   5.461  -6.573  0.00  0.00    -0.650 OA
BRANCH  35  37
HETATM   37  O   UNK     0     -13.591   5.656  -7.704  0.00  0.00    -0.776 OA
HETATM   38  H   UNK     0     -12.805   5.255  -8.190  0.00  0.00     0.167 HD
ENDBRANCH  35  37
ENDBRANCH  34  35
ENDBRANCH  33  34
ENDBRANCH   6  33
BRANCH  27  39
HETATM   39  C   UNK     0     -18.590  -3.862  -9.926  0.00  0.00     0.051 C 
BRANCH  39  40
HETATM   40  C   UNK     0     -19.294  -2.996 -10.872  0.00  0.00     0.114 C 
BRANCH  40  41
HETATM   41  C   UNK     0     -18.889  -1.630 -11.115  0.00  0.00     0.139 C 
HETATM   42  O   UNK     0     -18.144  -1.293 -12.046  0.00  0.00    -0.650 OA
BRANCH  41  43
HETATM   43  O   UNK     0     -19.362  -0.604 -10.249  0.00  0.00    -0.776 OA
HETATM   44  H   UNK     0     -19.590   0.266 -10.715  0.00  0.00     0.167 HD
ENDBRANCH  41  43
ENDBRANCH  40  41
ENDBRANCH  39  40
ENDBRANCH  27  39
BRANCH  11  45
HETATM   45  C   UNK     0     -10.074   0.620 -13.495  0.00  0.00     0.051 C 
BRANCH  45  46
HETATM   46  C   UNK     0     -10.128   1.723 -14.488  0.00  0.00     0.114 C 
BRANCH  46  47
HETATM   47  C   UNK     0      -8.786   2.373 -14.499  0.00  0.00     0.139 C 
HETATM   48  O   UNK     0      -8.621   3.379 -15.204  0.00  0.00    -0.650 OA
BRANCH  47  49
HETATM   49  O   UNK     0      -7.755   1.870 -13.747  0.00  0.00    -0.776 OA
HETATM   50  H   UNK     0      -7.292   2.424 -13.017  0.00  0.00     0.167 HD
ENDBRANCH  47  49
ENDBRANCH  46  47
ENDBRANCH  45  46
ENDBRANCH  11  45
BRANCH  18  51
HETATM   51  C   UNK     0     -14.258  -4.937 -14.101  0.00  0.00     0.051 C 
BRANCH  51  52
HETATM   52  C   UNK     0     -13.383  -5.728 -13.140  0.00  0.00     0.114 C 
BRANCH  52  53
HETATM   53  C   UNK     0     -13.795  -7.142 -13.057  0.00  0.00     0.139 C 
HETATM   54  O   UNK     0     -14.509  -7.527 -12.117  0.00  0.00    -0.650 OA
BRANCH  53  55
HETATM   55  O   UNK     0     -13.382  -8.028 -14.022  0.00  0.00    -0.776 OA
HETATM   56  H   UNK     0     -12.503  -8.022 -14.484  0.00  0.00     0.167 HD
ENDBRANCH  53  55
ENDBRANCH  52  53
ENDBRANCH  51  52
ENDBRANCH  18  51
TORSDOF 16
ENDMDL
MODEL 2
REMARK VINA RESULT:      -9.7     31.675     34.977
REMARK  16 active torsions:
REMARK  status: ('A' for Active; 'I' for Inactive)
REMARK    1  A    between atoms: C_6  and  C_7 
REMARK    2  A    between atoms: C_7  and  C_8 
REMARK    3  A    between atoms: C_8  and  C_9 
REMARK    4  A    between atoms: C_9  and  O_11 
REMARK    5  A    between atoms: C_16  and  C_17 
REMARK    6  A    between atoms: C_17  and  C_18 
REMARK    7  A    between atoms: C_18  and  C_19 
REMARK    8  A    between atoms: C_19  and  O_21 
REMARK    9  A    between atoms: C_28  and  C_29 
REMARK   10  A    between atoms: C_29  and  C_30 
REMARK   11  A    between atoms: C_30  and  C_31 
REMARK   12  A    between atoms: C_31  and  O_33 
REMARK   13  A    between atoms: C_42  and  C_43 
REMARK   14  A    between atoms: C_43  and  C_44 
REMARK   15  A    between atoms: C_44  and  C_45 
REMARK   16  A    between atoms: C_45  and  O_47 
ROOT
HETATM    1  C   UNK     0       9.354  -8.571   8.964  0.00  0.00     0.051 C 
HETATM    2  C   UNK     0       9.942  -7.176   8.895  0.00  0.00    -0.031 A 
HETATM    3  C   UNK     0       9.702  -6.079   9.707  0.00  0.00     0.021 A 
HETATM    4  N   UNK     0      10.427  -5.028   9.255  0.00  0.00    -0.361 N 
HETATM    5  C   UNK     0      11.130  -5.434   8.178  0.00  0.00     0.022 A 
HETATM    6  C   UNK     0      10.848  -6.772   7.923  0.00  0.00    -0.027 A 
HETATM    7  C   UNK     0      12.148  -4.691   7.370  0.00  0.00     0.115 C 
HETATM    8  C   UNK     0      13.153  -3.856   8.143  0.00  0.00     0.021 A 
HETATM    9  N   UNK     0      13.716  -4.114   9.333  0.00  0.00    -0.361 N 
HETATM   10  C   UNK     0      14.476  -3.052   9.677  0.00  0.00     0.022 A 
HETATM   11  C   UNK     0      14.409  -2.088   8.676  0.00  0.00    -0.027 A 
HETATM   12  C   UNK     0      13.577  -2.588   7.706  0.00  0.00    -0.031 A 
HETATM   13  C   UNK     0      13.211  -1.882   6.419  0.00  0.00     0.051 C 
HETATM   14  C   UNK     0      15.251  -2.883  10.981  0.00  0.00     0.115 C 
HETATM   15  C   UNK     0      14.375  -2.894  12.223  0.00  0.00     0.021 A 
HETATM   16  N   UNK     0      13.547  -3.872  12.636  0.00  0.00    -0.361 N 
HETATM   17  C   UNK     0      12.904  -3.468  13.734  0.00  0.00     0.022 A 
HETATM   18  C   UNK     0      13.341  -2.168  14.057  0.00  0.00    -0.027 A 
HETATM   19  C   UNK     0      14.263  -1.820  13.104  0.00  0.00    -0.031 A 
HETATM   20  C   UNK     0      15.014  -0.501  13.098  0.00  0.00     0.051 C 
HETATM   21  C   UNK     0      11.826  -4.158  14.538  0.00  0.00     0.115 C 
HETATM   22  C   UNK     0      10.845  -5.028  13.787  0.00  0.00     0.022 A 
HETATM   23  N   UNK     0      10.272  -4.798  12.599  0.00  0.00    -0.361 N 
HETATM   24  C   UNK     0       9.582  -5.900  12.241  0.00  0.00     0.021 A 
HETATM   25  C   UNK     0       9.706  -6.859  13.228  0.00  0.00    -0.031 A 
HETATM   26  C   UNK     0       9.084  -8.238  13.300  0.00  0.00     0.051 C 
HETATM   27  C   UNK     0      10.509  -6.324  14.228  0.00  0.00    -0.027 A 
HETATM   28  C   UNK     0       8.843  -6.152  10.938  0.00  0.00     0.115 C 
HETATM   29  H   UNK     0      10.406  -3.997   9.677  0.00  0.00     0.165 HD
HETATM   30  H   UNK     0      13.618  -5.065   9.911  0.00  0.00     0.165 HD
HETATM   31  H   UNK     0      13.449  -4.887  12.171  0.00  0.00     0.165 HD
HETATM   32  H   UNK     0      10.314  -3.839  12.021  0.00  0.00     0.165 HD
ENDROOT
BRANCH   6  33
HETATM   33  C   UNK     0      11.366  -7.684   6.839  0.00  0.00     0.051 C 
BRANCH  33  34
HETATM   34  C   UNK     0      10.472  -7.630   5.623  0.00  0.00     0.114 C 
BRANCH  34  35
HETATM   35  C   UNK     0      11.249  -6.984   4.526  0.00  0.00     0.139 C 
HETATM   36  O   UNK     0      12.370  -7.457   4.176  0.00  0.00    -0.650 OA
BRANCH  35  37
HETATM   37  O   UNK     0      10.795  -5.861   3.846  0.00  0.00    -0.776 OA
HETATM   38  H   UNK     0      11.156  -4.940   4.035  0.00  0.00     0.167 HD
ENDBRANCH  35  37
ENDBRANCH  34  35
ENDBRANCH  33  34
ENDBRANCH   6  33
BRANCH  27  39
HETATM   39  C   UNK     0      10.811  -7.043  15.496  0.00  0.00     0.051 C 
BRANCH  39  40
HETATM   40  C   UNK     0      12.140  -7.633  15.660  0.00  0.00     0.114 C 
BRANCH  40  41
HETATM   41  C   UNK     0      12.535  -8.842  14.974  0.00  0.00     0.139 C 
HETATM   42  O   UNK     0      13.673  -9.030  14.521  0.00  0.00    -0.650 OA
BRANCH  41  43
HETATM   43  O   UNK     0      11.579  -9.883  14.801  0.00  0.00    -0.776 OA
HETATM   44  H   UNK     0      10.956  -9.752  14.013  0.00  0.00     0.167 HD
ENDBRANCH  41  43
ENDBRANCH  40  41
ENDBRANCH  39  40
ENDBRANCH  27  39
BRANCH  11  45
HETATM   45  C   UNK     0      15.091  -0.748   8.611  0.00  0.00     0.051 C 
BRANCH  45  46
HETATM   46  C   UNK     0      14.335   0.349   9.267  0.00  0.00     0.114 C 
BRANCH  46  47
HETATM   47  C   UNK     0      14.996   1.630   8.886  0.00  0.00     0.139 C 
HETATM   48  O   UNK     0      16.204   1.615   8.612  0.00  0.00    -0.650 OA
BRANCH  47  49
HETATM   49  O   UNK     0      14.284   2.802   8.840  0.00  0.00    -0.776 OA
HETATM   50  H   UNK     0      14.354   3.452   8.048  0.00  0.00     0.167 HD
ENDBRANCH  47  49
ENDBRANCH  46  47
ENDBRANCH  45  46
ENDBRANCH  11  45
BRANCH  18  51
HETATM   51  C   UNK     0      12.919  -1.312  15.223  0.00  0.00     0.051 C 
BRANCH  51  52
HETATM   52  C   UNK     0      11.592  -0.680  14.830  0.00  0.00     0.114 C 
BRANCH  52  53
HETATM   53  C   UNK     0      11.571   0.770  15.101  0.00  0.00     0.139 C 
HETATM   54  O   UNK     0      10.973   1.208  16.097  0.00  0.00    -0.650 OA
BRANCH  53  55
HETATM   55  O   UNK     0      12.214   1.631  14.245  0.00  0.00    -0.776 OA
HETATM   56  H   UNK     0      12.526   2.547  14.464  0.00  0.00     0.167 HD
ENDBRANCH  53  55
ENDBRANCH  52  53
ENDBRANCH  51  52
ENDBRANCH  18  51
TORSDOF 16
ENDMDL
MODEL 3
REMARK VINA RESULT:      -9.7      3.896      8.366
REMARK  16 active torsions:
REMARK  status: ('A' for Active; 'I' for Inactive)
REMARK    1  A    between atoms: C_6  and  C_7 
REMARK    2  A    between atoms: C_7  and  C_8 
REMARK    3  A    between atoms: C_8  and  C_9 
REMARK    4  A    between atoms: C_9  and  O_11 
REMARK    5  A    between atoms: C_16  and  C_17 
REMARK    6  A    between atoms: C_17  and  C_18 
REMARK    7  A    between atoms: C_18  and  C_19 
REMARK    8  A    between atoms: C_19  and  O_21 
REMARK    9  A    between atoms: C_28  and  C_29 
REMARK   10  A    between atoms: C_29  and  C_30 
REMARK   11  A    between atoms: C_30  and  C_31 
REMARK   12  A    between atoms: C_31  and  O_33 
REMARK   13  A    between atoms: C_42  and  C_43 
REMARK   14  A    between atoms: C_43  and  C_44 
REMARK   15  A    between atoms: C_44  and  C_45 
REMARK   16  A    between atoms: C_45  and  O_47 
ROOT
HETATM    1  C   UNK     0     -18.749  -7.728  -6.272  0.00  0.00     0.051 C 
HETATM    2  C   UNK     0     -18.283  -7.141  -7.589  0.00  0.00    -0.031 A 
HETATM    3  C   UNK     0     -18.604  -5.926  -8.173  0.00  0.00     0.021 A 
HETATM    4  N   UNK     0     -17.978  -5.833  -9.370  0.00  0.00    -0.361 N 
HETATM    5  C   UNK     0     -17.257  -6.959  -9.557  0.00  0.00     0.022 A 
HETATM    6  C   UNK     0     -17.428  -7.800  -8.463  0.00  0.00    -0.027 A 
HETATM    7  C   UNK     0     -16.318  -7.314 -10.667  0.00  0.00     0.115 C 
HETATM    8  C   UNK     0     -15.377  -6.220 -11.140  0.00  0.00     0.021 A 
HETATM    9  N   UNK     0     -14.778  -5.262 -10.417  0.00  0.00    -0.361 N 
HETATM   10  C   UNK     0     -14.106  -4.455 -11.265  0.00  0.00     0.022 A 
HETATM   11  C   UNK     0     -14.270  -4.911 -12.570  0.00  0.00    -0.027 A 
HETATM   12  C   UNK     0     -15.069  -6.023 -12.498  0.00  0.00    -0.031 A 
HETATM   13  C   UNK     0     -15.511  -6.859 -13.679  0.00  0.00     0.051 C 
HETATM   14  C   UNK     0     -13.331  -3.196 -10.887  0.00  0.00     0.115 C 
HETATM   15  C   UNK     0     -14.185  -2.117 -10.241  0.00  0.00     0.021 A 
HETATM   16  N   UNK     0     -14.921  -2.215  -9.118  0.00  0.00    -0.361 N 
HETATM   17  C   UNK     0     -15.580  -1.071  -8.924  0.00  0.00     0.022 A 
HETATM   18  C   UNK     0     -15.251  -0.181  -9.967  0.00  0.00    -0.027 A 
HETATM   19  C   UNK     0     -14.376  -0.848 -10.784  0.00  0.00    -0.031 A 
HETATM   20  C   UNK     0     -13.740  -0.235 -12.018  0.00  0.00     0.051 C 
HETATM   21  C   UNK     0     -16.585  -0.696  -7.858  0.00  0.00     0.115 C 
HETATM   22  C   UNK     0     -17.498  -1.785  -7.346  0.00  0.00     0.022 A 
HETATM   23  N   UNK     0     -18.105  -2.755  -8.043  0.00  0.00    -0.361 N 
HETATM   24  C   UNK     0     -18.703  -3.591  -7.171  0.00  0.00     0.021 A 
HETATM   25  C   UNK     0     -18.485  -3.144  -5.883  0.00  0.00    -0.031 A 
HETATM   26  C   UNK     0     -18.986  -3.722  -4.575  0.00  0.00     0.051 C 
HETATM   27  C   UNK     0     -17.715  -1.989  -5.969  0.00  0.00    -0.027 A 
HETATM   28  C   UNK     0     -19.436  -4.886  -7.479  0.00  0.00     0.115 C 
HETATM   29  H   UNK     0     -18.080  -4.990 -10.093  0.00  0.00     0.165 HD
HETATM   30  H   UNK     0     -14.786  -5.182  -9.302  0.00  0.00     0.165 HD
HETATM   31  H   UNK     0     -14.938  -3.092  -8.420  0.00  0.00     0.165 HD
HETATM   32  H   UNK     0     -18.153  -2.833  -9.160  0.00  0.00     0.165 HD
ENDROOT
BRANCH   6  33
HETATM   33  C   UNK     0     -16.850  -9.165  -8.190  0.00  0.00     0.051 C 
BRANCH  33  34
HETATM   34  C   UNK     0     -17.729 -10.245  -8.774  0.00  0.00     0.114 C 
BRANCH  34  35
HETATM   35  C   UNK     0     -17.230 -11.554  -8.261  0.00  0.00     0.139 C 
HETATM   36  O   UNK     0     -18.030 -12.377  -7.730  0.00  0.00    -0.650 OA
BRANCH  35  37
HETATM   37  O   UNK     0     -15.894 -11.929  -8.340  0.00  0.00    -0.776 OA
HETATM   38  H   UNK     0     -15.592 -12.873  -8.160  0.00  0.00     0.167 HD
ENDBRANCH  35  37
ENDBRANCH  34  35
ENDBRANCH  33  34
ENDBRANCH   6  33
BRANCH  27  39
HETATM   39  C   UNK     0     -17.336  -1.178  -4.781  0.00  0.00     0.051 C 
BRANCH  39  40
HETATM   40  C   UNK     0     -18.201  -0.063  -4.396  0.00  0.00     0.114 C 
BRANCH  40  41
HETATM   41  C   UNK     0     -19.059  -0.119  -3.233  0.00  0.00     0.139 C 
HETATM   42  O   UNK     0     -18.931  -0.956  -2.329  0.00  0.00    -0.650 OA
BRANCH  41  43
HETATM   43  O   UNK     0     -20.112   0.830  -3.105  0.00  0.00    -0.776 OA
HETATM   44  H   UNK     0     -20.380   1.278  -3.973  0.00  0.00     0.167 HD
ENDBRANCH  41  43
ENDBRANCH  40  41
ENDBRANCH  39  40
ENDBRANCH  27  39
BRANCH  11  45
HETATM   45  C   UNK     0     -13.705  -4.342 -13.844  0.00  0.00     0.051 C 
BRANCH  45  46
HETATM   46  C   UNK     0     -14.463  -3.182 -14.378  0.00  0.00     0.114 C 
BRANCH  46  47
HETATM   47  C   UNK     0     -13.481  -2.288 -15.056  0.00  0.00     0.139 C 
HETATM   48  O   UNK     0     -13.846  -1.663 -16.062  0.00  0.00    -0.650 OA
BRANCH  47  49
HETATM   49  O   UNK     0     -12.201  -2.160 -14.580  0.00  0.00    -0.776 OA
HETATM   50  H   UNK     0     -11.567  -2.963 -14.499  0.00  0.00     0.167 HD
ENDBRANCH  47  49
ENDBRANCH  46  47
ENDBRANCH  45  46
ENDBRANCH  11  45
BRANCH  18  51
HETATM   51  C   UNK     0     -15.729   1.235 -10.161  0.00  0.00     0.051 C 
BRANCH  51  52
HETATM   52  C   UNK     0     -16.918   1.157 -11.107  0.00  0.00     0.114 C 
BRANCH  52  53
HETATM   53  C   UNK     0     -16.785   2.097 -12.236  0.00  0.00     0.139 C 
HETATM   54  O   UNK     0     -16.199   1.745 -13.273  0.00  0.00    -0.650 OA
BRANCH  53  55
HETATM   55  O   UNK     0     -17.309   3.363 -12.132  0.00  0.00    -0.776 OA
HETATM   56  H   UNK     0     -17.378   3.900 -11.300  0.00  0.00     0.167 HD
ENDBRANCH  53  55
ENDBRANCH  52  53
ENDBRANCH  51  52
ENDBRANCH  18  51
TORSDOF 16
ENDMDL
MODEL 4
REMARK VINA RESULT:      -9.6     31.379     34.706
REMARK  16 active torsions:
REMARK  status: ('A' for Active; 'I' for Inactive)
REMARK    1  A    between atoms: C_6  and  C_7 
REMARK    2  A    between atoms: C_7  and  C_8 
REMARK    3  A    between atoms: C_8  and  C_9 
REMARK    4  A    between atoms: C_9  and  O_11 
REMARK    5  A    between atoms: C_16  and  C_17 
REMARK    6  A    between atoms: C_17  and  C_18 
REMARK    7  A    between atoms: C_18  and  C_19 
REMARK    8  A    between atoms: C_19  and  O_21 
REMARK    9  A    between atoms: C_28  and  C_29 
REMARK   10  A    between atoms: C_29  and  C_30 
REMARK   11  A    between atoms: C_30  and  C_31 
REMARK   12  A    between atoms: C_31  and  O_33 
REMARK   13  A    between atoms: C_42  and  C_43 
REMARK   14  A    between atoms: C_43  and  C_44 
REMARK   15  A    between atoms: C_44  and  C_45 
REMARK   16  A    between atoms: C_45  and  O_47 
ROOT
HETATM    1  C   UNK     0      13.803   0.079   8.266  0.00  0.00     0.051 C 
HETATM    2  C   UNK     0      13.447  -1.389   8.384  0.00  0.00    -0.031 A 
HETATM    3  C   UNK     0      13.928  -2.343   9.266  0.00  0.00     0.021 A 
HETATM    4  N   UNK     0      13.351  -3.536   8.985  0.00  0.00    -0.361 N 
HETATM    5  C   UNK     0      12.505  -3.360   7.948  0.00  0.00     0.022 A 
HETATM    6  C   UNK     0      12.543  -2.029   7.546  0.00  0.00    -0.027 A 
HETATM    7  C   UNK     0      11.560  -4.333   7.315  0.00  0.00     0.115 C 
HETATM    8  C   UNK     0      10.772  -5.228   8.256  0.00  0.00     0.021 A 
HETATM    9  N   UNK     0      10.273  -4.935   9.467  0.00  0.00    -0.361 N 
HETATM   10  C   UNK     0       9.728  -6.058   9.979  0.00  0.00     0.022 A 
HETATM   11  C   UNK     0       9.870  -7.102   9.068  0.00  0.00    -0.027 A 
HETATM   12  C   UNK     0      10.527  -6.585   7.981  0.00  0.00    -0.031 A 
HETATM   13  C   UNK     0      10.897  -7.358   6.735  0.00  0.00     0.051 C 
HETATM   14  C   UNK     0       9.100  -6.206  11.362  0.00  0.00     0.115 C 
HETATM   15  C   UNK     0      10.061  -5.928  12.507  0.00  0.00     0.021 A 
HETATM   16  N   UNK     0      10.748  -4.795  12.745  0.00  0.00    -0.361 N 
HETATM   17  C   UNK     0      11.536  -4.976  13.808  0.00  0.00     0.022 A 
HETATM   18  C   UNK     0      11.345  -6.286  14.290  0.00  0.00    -0.027 A 
HETATM   19  C   UNK     0      10.418  -6.871  13.468  0.00  0.00    -0.031 A 
HETATM   20  C   UNK     0       9.895  -8.284  13.656  0.00  0.00     0.051 C 
HETATM   21  C   UNK     0      12.548  -4.046  14.436  0.00  0.00     0.115 C 
HETATM   22  C   UNK     0      13.309  -3.119  13.517  0.00  0.00     0.022 A 
HETATM   23  N   UNK     0      13.813  -3.383  12.304  0.00  0.00    -0.361 N 
HETATM   24  C   UNK     0      14.282  -2.232  11.781  0.00  0.00     0.021 A 
HETATM   25  C   UNK     0      14.084  -1.204  12.683  0.00  0.00    -0.031 A 
HETATM   26  C   UNK     0      14.476   0.255  12.568  0.00  0.00     0.051 C 
HETATM   27  C   UNK     0      13.463  -1.747  13.802  0.00  0.00    -0.027 A 
HETATM   28  C   UNK     0      14.861  -2.009  10.395  0.00  0.00     0.115 C 
HETATM   29  H   UNK     0      13.574  -4.501   9.495  0.00  0.00     0.165 HD
HETATM   30  H   UNK     0      10.261  -3.924   9.942  0.00  0.00     0.165 HD
HETATM   31  H   UNK     0      10.640  -3.832  12.182  0.00  0.00     0.165 HD
HETATM   32  H   UNK     0      13.882  -4.393  11.824  0.00  0.00     0.165 HD
ENDROOT
BRANCH   6  33
HETATM   33  C   UNK     0      11.796  -1.330   6.438  0.00  0.00     0.051 C 
BRANCH  33  34
HETATM   34  C   UNK     0      12.478  -1.554   5.109  0.00  0.00     0.114 C 
BRANCH  34  35
HETATM   35  C   UNK     0      11.420  -1.899   4.117  0.00  0.00     0.139 C 
HETATM   36  O   UNK     0      10.932  -3.067   4.087  0.00  0.00    -0.650 OA
BRANCH  35  37
HETATM   37  O   UNK     0      10.924  -0.981   3.199  0.00  0.00    -0.776 OA
HETATM   38  H   UNK     0      10.346  -1.260   2.423  0.00  0.00     0.167 HD
ENDBRANCH  35  37
ENDBRANCH  34  35
ENDBRANCH  33  34
ENDBRANCH   6  33
BRANCH  27  39
HETATM   39  C   UNK     0      13.152  -0.954  15.022  0.00  0.00     0.051 C 
BRANCH  39  40
HETATM   40  C   UNK     0      11.770  -0.524  15.237  0.00  0.00     0.114 C 
BRANCH  40  41
HETATM   41  C   UNK     0      11.423   0.857  15.490  0.00  0.00     0.139 C 
HETATM   42  O   UNK     0      10.732   1.223  16.450  0.00  0.00    -0.650 OA
BRANCH  41  43
HETATM   43  O   UNK     0      11.893   1.862  14.598  0.00  0.00    -0.776 OA
HETATM   44  H   UNK     0      12.425   2.601  15.042  0.00  0.00     0.167 HD
ENDBRANCH  41  43
ENDBRANCH  40  41
ENDBRANCH  39  40
ENDBRANCH  27  39
BRANCH  11  45
HETATM   45  C   UNK     0       9.414  -8.530   9.194  0.00  0.00     0.051 C 
BRANCH  45  46
HETATM   46  C   UNK     0       8.004  -8.754   8.783  0.00  0.00     0.114 C 
BRANCH  46  47
HETATM   47  C   UNK     0       7.811 -10.227   8.652  0.00  0.00     0.139 C 
HETATM   48  O   UNK     0       6.663 -10.684   8.742  0.00  0.00    -0.650 OA
BRANCH  47  49
HETATM   49  O   UNK     0       8.880 -11.060   8.439  0.00  0.00    -0.776 OA
HETATM   50  H   UNK     0       9.696 -11.071   9.062  0.00  0.00     0.167 HD
ENDBRANCH  47  49
ENDBRANCH  46  47
ENDBRANCH  45  46
ENDBRANCH  11  45
BRANCH  18  51
HETATM   51  C   UNK     0      11.996  -6.937  15.483  0.00  0.00     0.051 C 
BRANCH  51  52
HETATM   52  C   UNK     0      13.454  -7.155  15.108  0.00  0.00     0.114 C 
BRANCH  52  53
HETATM   53  C   UNK     0      13.815  -8.586  15.111  0.00  0.00     0.139 C 
HETATM   54  O   UNK     0      12.956  -9.444  14.851  0.00  0.00    -0.650 OA
BRANCH  53  55
HETATM   55  O   UNK     0      15.102  -8.962  15.408  0.00  0.00    -0.776 OA
HETATM   56  H   UNK     0      15.647  -9.624  14.908  0.00  0.00     0.167 HD
ENDBRANCH  53  55
ENDBRANCH  52  53
ENDBRANCH  51  52
ENDBRANCH  18  51
TORSDOF 16
ENDMDL
MODEL 5
REMARK VINA RESULT:      -9.5     31.275     33.874
REMARK  16 active torsions:
REMARK  status: ('A' for Active; 'I' for Inactive)
REMARK    1  A    between atoms: C_6  and  C_7 
REMARK    2  A    between atoms: C_7  and  C_8 
REMARK    3  A    between atoms: C_8  and  C_9 
REMARK    4  A    between atoms: C_9  and  O_11 
REMARK    5  A    between atoms: C_16  and  C_17 
REMARK    6  A    between atoms: C_17  and  C_18 
REMARK    7  A    between atoms: C_18  and  C_19 
REMARK    8  A    between atoms: C_19  and  O_21 
REMARK    9  A    between atoms: C_28  and  C_29 
REMARK   10  A    between atoms: C_29  and  C_30 
REMARK   11  A    between atoms: C_30  and  C_31 
REMARK   12  A    between atoms: C_31  and  O_33 
REMARK   13  A    between atoms: C_42  and  C_43 
REMARK   14  A    between atoms: C_43  and  C_44 
REMARK   15  A    between atoms: C_44  and  C_45 
REMARK   16  A    between atoms: C_45  and  O_47 
ROOT
HETATM    1  C   UNK     0       9.842  -4.447  16.216  0.00  0.00     0.051 C 
HETATM    2  C   UNK     0      10.996  -4.297  15.247  0.00  0.00    -0.031 A 
HETATM    3  C   UNK     0      11.409  -5.147  14.232  0.00  0.00     0.021 A 
HETATM    4  N   UNK     0      12.509  -4.625  13.639  0.00  0.00    -0.361 N 
HETATM    5  C   UNK     0      12.801  -3.457  14.248  0.00  0.00     0.022 A 
HETATM    6  C   UNK     0      11.876  -3.223  15.260  0.00  0.00    -0.027 A 
HETATM    7  C   UNK     0      13.856  -2.449  13.915  0.00  0.00     0.115 C 
HETATM    8  C   UNK     0      14.055  -2.130  12.444  0.00  0.00     0.021 A 
HETATM    9  N   UNK     0      13.133  -2.062  11.471  0.00  0.00    -0.361 N 
HETATM   10  C   UNK     0      13.771  -1.841  10.303  0.00  0.00     0.022 A 
HETATM   11  C   UNK     0      15.142  -1.755  10.531  0.00  0.00    -0.027 A 
HETATM   12  C   UNK     0      15.327  -1.936  11.877  0.00  0.00    -0.031 A 
HETATM   13  C   UNK     0      16.663  -1.918  12.586  0.00  0.00     0.051 C 
HETATM   14  C   UNK     0      13.124  -1.756   8.924  0.00  0.00     0.115 C 
HETATM   15  C   UNK     0      12.401  -3.025   8.503  0.00  0.00     0.021 A 
HETATM   16  N   UNK     0      11.385  -3.640   9.137  0.00  0.00    -0.361 N 
HETATM   17  C   UNK     0      11.078  -4.764   8.485  0.00  0.00     0.022 A 
HETATM   18  C   UNK     0      11.928  -4.882   7.368  0.00  0.00    -0.027 A 
HETATM   19  C   UNK     0      12.751  -3.786   7.389  0.00  0.00    -0.031 A 
HETATM   20  C   UNK     0      13.804  -3.500   6.334  0.00  0.00     0.051 C 
HETATM   21  C   UNK     0      10.069  -5.838   8.823  0.00  0.00     0.115 C 
HETATM   22  C   UNK     0       9.829  -6.135  10.284  0.00  0.00     0.022 A 
HETATM   23  N   UNK     0      10.727  -6.205  11.275  0.00  0.00    -0.361 N 
HETATM   24  C   UNK     0      10.063  -6.348  12.440  0.00  0.00     0.021 A 
HETATM   25  C   UNK     0       8.704  -6.381  12.192  0.00  0.00    -0.031 A 
HETATM   26  C   UNK     0       7.560  -6.565  13.168  0.00  0.00     0.051 C 
HETATM   27  C   UNK     0       8.529  -6.247  10.819  0.00  0.00    -0.027 A 
HETATM   28  C   UNK     0      10.643  -6.380  13.843  0.00  0.00     0.115 C 
HETATM   29  H   UNK     0      13.094  -5.105  12.821  0.00  0.00     0.165 HD
HETATM   30  H   UNK     0      12.026  -2.119  11.613  0.00  0.00     0.165 HD
HETATM   31  H   UNK     0      10.841  -3.250  10.036  0.00  0.00     0.165 HD
HETATM   32  H   UNK     0      11.842  -6.198  11.158  0.00  0.00     0.165 HD
ENDROOT
BRANCH   6  33
HETATM   33  C   UNK     0      11.769  -2.072  16.228  0.00  0.00     0.051 C 
BRANCH  33  34
HETATM   34  C   UNK     0      10.671  -1.123  15.811  0.00  0.00     0.114 C 
BRANCH  34  35
HETATM   35  C   UNK     0      11.259   0.246  15.762  0.00  0.00     0.139 C 
HETATM   36  O   UNK     0      12.245   0.489  15.007  0.00  0.00    -0.650 OA
BRANCH  35  37
HETATM   37  O   UNK     0      10.766   1.301  16.520  0.00  0.00    -0.776 OA
HETATM   38  H   UNK     0      11.328   2.106  16.745  0.00  0.00     0.167 HD
ENDBRANCH  35  37
ENDBRANCH  34  35
ENDBRANCH  33  34
ENDBRANCH   6  33
BRANCH  27  39
HETATM   39  C   UNK     0       7.196  -6.308  10.161  0.00  0.00     0.051 C 
BRANCH  39  40
HETATM   40  C   UNK     0       6.718  -7.604   9.681  0.00  0.00     0.114 C 
BRANCH  40  41
HETATM   41  C   UNK     0       7.541  -8.481   8.879  0.00  0.00     0.139 C 
HETATM   42  O   UNK     0       7.819  -8.261   7.692  0.00  0.00    -0.650 OA
BRANCH  41  43
HETATM   43  O   UNK     0       8.071  -9.664   9.469  0.00  0.00    -0.776 OA
HETATM   44  H   UNK     0       7.390 -10.224   9.967  0.00  0.00     0.167 HD
ENDBRANCH  41  43
ENDBRANCH  40  41
ENDBRANCH  39  40
ENDBRANCH  27  39
BRANCH  11  45
HETATM   45  C   UNK     0      16.248  -1.511   9.539  0.00  0.00     0.051 C 
BRANCH  45  46
HETATM   46  C   UNK     0      16.337  -0.107   9.064  0.00  0.00     0.114 C 
BRANCH  46  47
HETATM   47  C   UNK     0      17.754   0.137   8.669  0.00  0.00     0.139 C 
HETATM   48  O   UNK     0      18.089   1.285   8.344  0.00  0.00    -0.650 OA
BRANCH  47  49
HETATM   49  O   UNK     0      18.667  -0.887   8.663  0.00  0.00    -0.776 OA
HETATM   50  H   UNK     0      18.500  -1.770   9.159  0.00  0.00     0.167 HD
ENDBRANCH  47  49
ENDBRANCH  46  47
ENDBRANCH  45  46
ENDBRANCH  11  45
BRANCH  18  51
HETATM   51  C   UNK     0      11.940  -5.968   6.324  0.00  0.00     0.051 C 
BRANCH  51  52
HETATM   52  C   UNK     0      11.246  -5.391   5.100  0.00  0.00     0.114 C 
BRANCH  52  53
HETATM   53  C   UNK     0      11.758  -5.982   3.848  0.00  0.00     0.139 C 
HETATM   54  O   UNK     0      12.923  -5.756   3.485  0.00  0.00    -0.650 OA
BRANCH  53  55
HETATM   55  O   UNK     0      10.937  -6.779   3.087  0.00  0.00    -0.776 OA
HETATM   56  H   UNK     0       9.965  -6.920   3.229  0.00  0.00     0.167 HD
ENDBRANCH  53  55
ENDBRANCH  52  53
ENDBRANCH  51  52
ENDBRANCH  18  51
TORSDOF 16
ENDMDL
MODEL 6
REMARK VINA RESULT:      -9.4     31.208     33.878
REMARK  16 active torsions:
REMARK  status: ('A' for Active; 'I' for Inactive)
REMARK    1  A    between atoms: C_6  and  C_7 
REMARK    2  A    between atoms: C_7  and  C_8 
REMARK    3  A    between atoms: C_8  and  C_9 
REMARK    4  A    between atoms: C_9  and  O_11 
REMARK    5  A    between atoms: C_16  and  C_17 
REMARK    6  A    between atoms: C_17  and  C_18 
REMARK    7  A    between atoms: C_18  and  C_19 
REMARK    8  A    between atoms: C_19  and  O_21 
REMARK    9  A    between atoms: C_28  and  C_29 
REMARK   10  A    between atoms: C_29  and  C_30 
REMARK   11  A    between atoms: C_30  and  C_31 
REMARK   12  A    between atoms: C_31  and  O_33 
REMARK   13  A    between atoms: C_42  and  C_43 
REMARK   14  A    between atoms: C_43  and  C_44 
REMARK   15  A    between atoms: C_44  and  C_45 
REMARK   16  A    between atoms: C_45  and  O_47 
ROOT
HETATM    1  C   UNK     0       9.288  -4.581  16.413  0.00  0.00     0.051 C 
HETATM    2  C   UNK     0      10.478  -4.210  15.552  0.00  0.00    -0.031 A 
HETATM    3  C   UNK     0      11.067  -4.915  14.514  0.00  0.00     0.021 A 
HETATM    4  N   UNK     0      12.128  -4.213  14.050  0.00  0.00    -0.361 N 
HETATM    5  C   UNK     0      12.224  -3.073  14.765  0.00  0.00     0.022 A 
HETATM    6  C   UNK     0      11.209  -3.040  15.715  0.00  0.00    -0.027 A 
HETATM    7  C   UNK     0      13.160  -1.917  14.593  0.00  0.00     0.115 C 
HETATM    8  C   UNK     0      13.417  -1.455  13.170  0.00  0.00     0.021 A 
HETATM    9  N   UNK     0      12.564  -1.420  12.134  0.00  0.00    -0.361 N 
HETATM   10  C   UNK     0      13.249  -1.025  11.040  0.00  0.00     0.022 A 
HETATM   11  C   UNK     0      14.578  -0.790  11.382  0.00  0.00    -0.027 A 
HETATM   12  C   UNK     0      14.690  -1.058  12.722  0.00  0.00    -0.031 A 
HETATM   13  C   UNK     0      15.960  -0.935  13.535  0.00  0.00     0.051 C 
HETATM   14  C   UNK     0      12.694  -0.906   9.624  0.00  0.00     0.115 C 
HETATM   15  C   UNK     0      12.172  -2.216   9.054  0.00  0.00     0.021 A 
HETATM   16  N   UNK     0      11.203  -3.002   9.558  0.00  0.00    -0.361 N 
HETATM   17  C   UNK     0      11.090  -4.097   8.803  0.00  0.00     0.022 A 
HETATM   18  C   UNK     0      12.024  -4.015   7.751  0.00  0.00    -0.027 A 
HETATM   19  C   UNK     0      12.695  -2.832   7.919  0.00  0.00    -0.031 A 
HETATM   20  C   UNK     0      13.772  -2.331   6.975  0.00  0.00     0.051 C 
HETATM   21  C   UNK     0      10.208  -5.312   8.979  0.00  0.00     0.115 C 
HETATM   22  C   UNK     0       9.907  -5.758  10.390  0.00  0.00     0.022 A 
HETATM   23  N   UNK     0      10.736  -5.798  11.442  0.00  0.00    -0.361 N 
HETATM   24  C   UNK     0      10.016  -6.119  12.536  0.00  0.00     0.021 A 
HETATM   25  C   UNK     0       8.693  -6.299  12.179  0.00  0.00    -0.031 A 
HETATM   26  C   UNK     0       7.519  -6.704  13.044  0.00  0.00     0.051 C 
HETATM   27  C   UNK     0       8.599  -6.073  10.810  0.00  0.00    -0.027 A 
HETATM   28  C   UNK     0      10.496  -6.196  13.975  0.00  0.00     0.115 C 
HETATM   29  H   UNK     0      12.827  -4.547  13.248  0.00  0.00     0.165 HD
HETATM   30  H   UNK     0      11.467  -1.626  12.183  0.00  0.00     0.165 HD
HETATM   31  H   UNK     0      10.552  -2.759  10.437  0.00  0.00     0.165 HD
HETATM   32  H   UNK     0      11.846  -5.644  11.414  0.00  0.00     0.165 HD
ENDROOT
BRANCH   6  33
HETATM   33  C   UNK     0      10.886  -1.996  16.754  0.00  0.00     0.051 C 
BRANCH  33  34
HETATM   34  C   UNK     0       9.744  -1.120  16.295  0.00  0.00     0.114 C 
BRANCH  34  35
HETATM   35  C   UNK     0      10.332   0.162  15.810  0.00  0.00     0.139 C 
HETATM   36  O   UNK     0      10.503   0.356  14.571  0.00  0.00    -0.650 OA
BRANCH  35  37
HETATM   37  O   UNK     0      10.711   1.185  16.670  0.00  0.00    -0.776 OA
HETATM   38  H   UNK     0      11.377   1.891  16.399  0.00  0.00     0.167 HD
ENDBRANCH  35  37
ENDBRANCH  34  35
ENDBRANCH  33  34
ENDBRANCH   6  33
BRANCH  27  39
HETATM   39  C   UNK     0       7.334  -6.244  10.046  0.00  0.00     0.051 C 
BRANCH  39  40
HETATM   40  C   UNK     0       7.026  -7.566   9.500  0.00  0.00     0.114 C 
BRANCH  40  41
HETATM   41  C   UNK     0       7.980  -8.319   8.718  0.00  0.00     0.139 C 
HETATM   42  O   UNK     0       8.072  -8.234   7.486  0.00  0.00    -0.650 OA
BRANCH  41  43
HETATM   43  O   UNK     0       8.870  -9.209   9.384  0.00  0.00    -0.776 OA
HETATM   44  H   UNK     0       9.786  -9.283   8.958  0.00  0.00     0.167 HD
ENDBRANCH  41  43
ENDBRANCH  40  41
ENDBRANCH  39  40
ENDBRANCH  27  39
BRANCH  11  45
HETATM   45  C   UNK     0      15.709  -0.329  10.503  0.00  0.00     0.051 C 
BRANCH  45  46
HETATM   46  C   UNK     0      16.410  -1.428   9.792  0.00  0.00     0.114 C 
BRANCH  46  47
HETATM   47  C   UNK     0      17.316  -0.798   8.789  0.00  0.00     0.139 C 
HETATM   48  O   UNK     0      16.824  -0.044   7.938  0.00  0.00    -0.650 OA
BRANCH  47  49
HETATM   49  O   UNK     0      18.665  -1.048   8.806  0.00  0.00    -0.776 OA
HETATM   50  H   UNK     0      19.043  -2.003   8.793  0.00  0.00     0.167 HD
ENDBRANCH  47  49
ENDBRANCH  46  47
ENDBRANCH  45  46
ENDBRANCH  11  45
BRANCH  18  51
HETATM   51  C   UNK     0      12.250  -5.001   6.634  0.00  0.00     0.051 C 
BRANCH  51  52
HETATM   52  C   UNK     0      11.142  -4.758   5.620  0.00  0.00     0.114 C 
BRANCH  52  53
HETATM   53  C   UNK     0      11.654  -4.128   4.387  0.00  0.00     0.139 C 
HETATM   54  O   UNK     0      12.863  -4.194   4.112  0.00  0.00    -0.650 OA
BRANCH  53  55
HETATM   55  O   UNK     0      10.787  -3.468   3.551  0.00  0.00    -0.776 OA
HETATM   56  H   UNK     0      10.824  -2.505   3.314  0.00  0.00     0.167 HD
ENDBRANCH  53  55
ENDBRANCH  52  53
ENDBRANCH  51  52
ENDBRANCH  18  51
TORSDOF 16
ENDMDL
MODEL 7
REMARK VINA RESULT:      -9.3     31.404     34.585
REMARK  16 active torsions:
REMARK  status: ('A' for Active; 'I' for Inactive)
REMARK    1  A    between atoms: C_6  and  C_7 
REMARK    2  A    between atoms: C_7  and  C_8 
REMARK    3  A    between atoms: C_8  and  C_9 
REMARK    4  A    between atoms: C_9  and  O_11 
REMARK    5  A    between atoms: C_16  and  C_17 
REMARK    6  A    between atoms: C_17  and  C_18 
REMARK    7  A    between atoms: C_18  and  C_19 
REMARK    8  A    between atoms: C_19  and  O_21 
REMARK    9  A    between atoms: C_28  and  C_29 
REMARK   10  A    between atoms: C_29  and  C_30 
REMARK   11  A    between atoms: C_30  and  C_31 
REMARK   12  A    between atoms: C_31  and  O_33 
REMARK   13  A    between atoms: C_42  and  C_43 
REMARK   14  A    between atoms: C_43  and  C_44 
REMARK   15  A    between atoms: C_44  and  C_45 
REMARK   16  A    between atoms: C_45  and  O_47 
ROOT
HETATM    1  C   UNK     0      14.133  -0.735   6.400  0.00  0.00     0.051 C 
HETATM    2  C   UNK     0      13.489  -0.625   7.767  0.00  0.00    -0.031 A 
HETATM    3  C   UNK     0      12.259  -1.093   8.201  0.00  0.00     0.021 A 
HETATM    4  N   UNK     0      12.084  -0.739   9.496  0.00  0.00    -0.361 N 
HETATM    5  C   UNK     0      13.179  -0.063   9.900  0.00  0.00     0.022 A 
HETATM    6  C   UNK     0      14.078   0.029   8.842  0.00  0.00    -0.027 A 
HETATM    7  C   UNK     0      13.527   0.462  11.258  0.00  0.00     0.115 C 
HETATM    8  C   UNK     0      13.230  -0.447  12.437  0.00  0.00     0.021 A 
HETATM    9  N   UNK     0      13.316  -1.785  12.504  0.00  0.00    -0.361 N 
HETATM   10  C   UNK     0      12.867  -2.173  13.716  0.00  0.00     0.022 A 
HETATM   11  C   UNK     0      12.489  -1.055  14.453  0.00  0.00    -0.027 A 
HETATM   12  C   UNK     0      12.715   0.036  13.653  0.00  0.00    -0.031 A 
HETATM   13  C   UNK     0      12.454   1.474  14.042  0.00  0.00     0.051 C 
HETATM   14  C   UNK     0      12.726  -3.612  14.207  0.00  0.00     0.115 C 
HETATM   15  C   UNK     0      11.772  -4.455  13.375  0.00  0.00     0.021 A 
HETATM   16  N   UNK     0      11.849  -4.724  12.059  0.00  0.00    -0.361 N 
HETATM   17  C   UNK     0      10.783  -5.441  11.695  0.00  0.00     0.022 A 
HETATM   18  C   UNK     0       9.978  -5.656  12.831  0.00  0.00    -0.027 A 
HETATM   19  C   UNK     0      10.609  -5.035  13.877  0.00  0.00    -0.031 A 
HETATM   20  C   UNK     0      10.093  -5.053  15.304  0.00  0.00     0.051 C 
HETATM   21  C   UNK     0      10.362  -5.932  10.328  0.00  0.00     0.115 C 
HETATM   22  C   UNK     0      10.691  -5.058   9.141  0.00  0.00     0.022 A 
HETATM   23  N   UNK     0      10.618  -3.724   9.047  0.00  0.00    -0.361 N 
HETATM   24  C   UNK     0      11.144  -3.353   7.862  0.00  0.00     0.021 A 
HETATM   25  C   UNK     0      11.556  -4.477   7.172  0.00  0.00    -0.031 A 
HETATM   26  C   UNK     0      12.167  -4.576   5.789  0.00  0.00     0.051 C 
HETATM   27  C   UNK     0      11.276  -5.580   7.970  0.00  0.00    -0.027 A 
HETATM   28  C   UNK     0      11.365  -1.943   7.343  0.00  0.00     0.115 C 
HETATM   29  H   UNK     0      11.171  -0.935  10.105  0.00  0.00     0.165 HD
HETATM   30  H   UNK     0      13.741  -2.454  11.717  0.00  0.00     0.165 HD
HETATM   31  H   UNK     0      12.696  -4.444  11.380  0.00  0.00     0.165 HD
HETATM   32  H   UNK     0      10.155  -3.033   9.799  0.00  0.00     0.165 HD
ENDROOT
BRANCH   6  33
HETATM   33  C   UNK     0      15.434   0.685   8.775  0.00  0.00     0.051 C 
BRANCH  33  34
HETATM   34  C   UNK     0      16.500  -0.234   9.323  0.00  0.00     0.114 C 
BRANCH  34  35
HETATM   35  C   UNK     0      17.698  -0.100   8.445  0.00  0.00     0.139 C 
HETATM   36  O   UNK     0      17.617   0.523   7.347  0.00  0.00    -0.650 OA
BRANCH  35  37
HETATM   37  O   UNK     0      18.935  -0.637   8.780  0.00  0.00    -0.776 OA
HETATM   38  H   UNK     0      19.741  -0.537   8.183  0.00  0.00     0.167 HD
ENDBRANCH  35  37
ENDBRANCH  34  35
ENDBRANCH  33  34
ENDBRANCH   6  33
BRANCH  27  39
HETATM   39  C   UNK     0      11.517  -6.981   7.529  0.00  0.00     0.051 C 
BRANCH  39  40
HETATM   40  C   UNK     0      10.412  -7.713   6.910  0.00  0.00     0.114 C 
BRANCH  40  41
HETATM   41  C   UNK     0       9.417  -8.412   7.692  0.00  0.00     0.139 C 
HETATM   42  O   UNK     0       8.197  -8.254   7.544  0.00  0.00    -0.650 OA
BRANCH  41  43
HETATM   43  O   UNK     0       9.843  -9.335   8.689  0.00  0.00    -0.776 OA
HETATM   44  H   UNK     0       9.093  -9.856   9.125  0.00  0.00     0.167 HD
ENDBRANCH  41  43
ENDBRANCH  40  41
ENDBRANCH  39  40
ENDBRANCH  27  39
BRANCH  11  45
HETATM   45  C   UNK     0      11.938  -0.991  15.853  0.00  0.00     0.051 C 
BRANCH  45  46
HETATM   46  C   UNK     0      10.455  -1.007  15.922  0.00  0.00     0.114 C 
BRANCH  46  47
HETATM   47  C   UNK     0      10.021   0.332  16.414  0.00  0.00     0.139 C 
HETATM   48  O   UNK     0       9.251   1.000  15.710  0.00  0.00    -0.650 OA
BRANCH  47  49
HETATM   49  O   UNK     0      10.465   0.815  17.619  0.00  0.00    -0.776 OA
HETATM   50  H   UNK     0      10.002   0.578  18.505  0.00  0.00     0.167 HD
ENDBRANCH  47  49
ENDBRANCH  46  47
ENDBRANCH  45  46
ENDBRANCH  11  45
BRANCH  18  51
HETATM   51  C   UNK     0       8.688  -6.430  12.919  0.00  0.00     0.051 C 
BRANCH  51  52
HETATM   52  C   UNK     0       9.070  -7.902  12.865  0.00  0.00     0.114 C 
BRANCH  52  53
HETATM   53  C   UNK     0       8.558  -8.646  14.033  0.00  0.00     0.139 C 
HETATM   54  O   UNK     0       8.433  -8.074  15.127  0.00  0.00    -0.650 OA
BRANCH  53  55
HETATM   55  O   UNK     0       8.226  -9.972  13.901  0.00  0.00    -0.776 OA
HETATM   56  H   UNK     0       7.684 -10.369  13.170  0.00  0.00     0.167 HD
ENDBRANCH  53  55
ENDBRANCH  52  53
ENDBRANCH  51  52
ENDBRANCH  18  51
TORSDOF 16
ENDMDL
MODEL 8
REMARK VINA RESULT:      -9.2     30.579     34.321
REMARK  16 active torsions:
REMARK  status: ('A' for Active; 'I' for Inactive)
REMARK    1  A    between atoms: C_6  and  C_7 
REMARK    2  A    between atoms: C_7  and  C_8 
REMARK    3  A    between atoms: C_8  and  C_9 
REMARK    4  A    between atoms: C_9  and  O_11 
REMARK    5  A    between atoms: C_16  and  C_17 
REMARK    6  A    between atoms: C_17  and  C_18 
REMARK    7  A    between atoms: C_18  and  C_19 
REMARK    8  A    between atoms: C_19  and  O_21 
REMARK    9  A    between atoms: C_28  and  C_29 
REMARK   10  A    between atoms: C_29  and  C_30 
REMARK   11  A    between atoms: C_30  and  C_31 
REMARK   12  A    between atoms: C_31  and  O_33 
REMARK   13  A    between atoms: C_42  and  C_43 
REMARK   14  A    between atoms: C_43  and  C_44 
REMARK   15  A    between atoms: C_44  and  C_45 
REMARK   16  A    between atoms: C_45  and  O_47 
ROOT
HETATM    1  C   UNK     0      14.241  -0.310   5.039  0.00  0.00     0.051 C 
HETATM    2  C   UNK     0      13.915  -1.627   5.712  0.00  0.00    -0.031 A 
HETATM    3  C   UNK     0      14.460  -2.189   6.856  0.00  0.00     0.021 A 
HETATM    4  N   UNK     0      13.887  -3.396   7.071  0.00  0.00    -0.361 N 
HETATM    5  C   UNK     0      12.982  -3.613   6.094  0.00  0.00     0.022 A 
HETATM    6  C   UNK     0      12.976  -2.527   5.225  0.00  0.00    -0.027 A 
HETATM    7  C   UNK     0      12.019  -4.746   5.923  0.00  0.00     0.115 C 
HETATM    8  C   UNK     0      11.298  -5.222   7.172  0.00  0.00     0.021 A 
HETATM    9  N   UNK     0      10.863  -4.498   8.214  0.00  0.00    -0.361 N 
HETATM   10  C   UNK     0      10.364  -5.348   9.136  0.00  0.00     0.022 A 
HETATM   11  C   UNK     0      10.472  -6.655   8.672  0.00  0.00    -0.027 A 
HETATM   12  C   UNK     0      11.060  -6.583   7.434  0.00  0.00    -0.031 A 
HETATM   13  C   UNK     0      11.372  -7.766   6.545  0.00  0.00     0.051 C 
HETATM   14  C   UNK     0       9.817  -4.968  10.510  0.00  0.00     0.115 C 
HETATM   15  C   UNK     0      10.836  -4.290  11.412  0.00  0.00     0.021 A 
HETATM   16  N   UNK     0      11.517  -3.154  11.174  0.00  0.00    -0.361 N 
HETATM   17  C   UNK     0      12.366  -2.932  12.180  0.00  0.00     0.022 A 
HETATM   18  C   UNK     0      12.223  -3.969  13.124  0.00  0.00    -0.027 A 
HETATM   19  C   UNK     0      11.261  -4.812  12.632  0.00  0.00    -0.031 A 
HETATM   20  C   UNK     0      10.771  -6.050  13.361  0.00  0.00     0.051 C 
HETATM   21  C   UNK     0      13.397  -1.842  12.359  0.00  0.00     0.115 C 
HETATM   22  C   UNK     0      14.091  -1.327  11.120  0.00  0.00     0.022 A 
HETATM   23  N   UNK     0      14.531  -2.025  10.065  0.00  0.00    -0.361 N 
HETATM   24  C   UNK     0      14.952  -1.153   9.126  0.00  0.00     0.021 A 
HETATM   25  C   UNK     0      14.788   0.137   9.592  0.00  0.00    -0.031 A 
HETATM   26  C   UNK     0      15.150   1.446   8.922  0.00  0.00     0.051 C 
HETATM   27  C   UNK     0      14.239   0.052  10.866  0.00  0.00    -0.027 A 
HETATM   28  C   UNK     0      15.449  -1.464   7.725  0.00  0.00     0.115 C 
HETATM   29  H   UNK     0      14.153  -4.105   7.890  0.00  0.00     0.165 HD
HETATM   30  H   UNK     0      10.861  -3.382   8.280  0.00  0.00     0.165 HD
HETATM   31  H   UNK     0      11.364  -2.468  10.300  0.00  0.00     0.165 HD
HETATM   32  H   UNK     0      14.589  -3.142   9.990  0.00  0.00     0.165 HD
ENDROOT
BRANCH   6  33
HETATM   33  C   UNK     0      12.159  -2.284   3.982  0.00  0.00     0.051 C 
BRANCH  33  34
HETATM   34  C   UNK     0      12.908  -2.738   2.751  0.00  0.00     0.114 C 
BRANCH  34  35
HETATM   35  C   UNK     0      11.947  -3.494   1.897  0.00  0.00     0.139 C 
HETATM   36  O   UNK     0      11.334  -2.909   0.958  0.00  0.00    -0.650 OA
BRANCH  35  37
HETATM   37  O   UNK     0      11.683  -4.845   2.081  0.00  0.00    -0.776 OA
HETATM   38  H   UNK     0      11.171  -5.186   2.879  0.00  0.00     0.167 HD
ENDBRANCH  35  37
ENDBRANCH  34  35
ENDBRANCH  33  34
ENDBRANCH   6  33
BRANCH  27  39
HETATM   39  C   UNK     0      13.984   1.243  11.721  0.00  0.00     0.051 C 
BRANCH  39  40
HETATM   40  C   UNK     0      12.621   1.770  11.788  0.00  0.00     0.114 C 
BRANCH  40  41
HETATM   41  C   UNK     0      12.324   3.168  11.572  0.00  0.00     0.139 C 
HETATM   42  O   UNK     0      11.232   3.685  11.845  0.00  0.00    -0.650 OA
BRANCH  41  43
HETATM   43  O   UNK     0      13.328   4.010  11.015  0.00  0.00    -0.776 OA
HETATM   44  H   UNK     0      12.977   4.718  10.382  0.00  0.00     0.167 HD
ENDBRANCH  41  43
ENDBRANCH  40  41
ENDBRANCH  39  40
ENDBRANCH  27  39
BRANCH  11  45
HETATM   45  C   UNK     0      10.046  -7.932   9.344  0.00  0.00     0.051 C 
BRANCH  45  46
HETATM   46  C   UNK     0       8.590  -8.211   9.247  0.00  0.00     0.114 C 
BRANCH  46  47
HETATM   47  C   UNK     0       8.436  -9.507   8.526  0.00  0.00     0.139 C 
HETATM   48  O   UNK     0       7.345  -9.763   7.996  0.00  0.00    -0.650 OA
BRANCH  47  49
HETATM   49  O   UNK     0       9.477 -10.397   8.449  0.00  0.00    -0.776 OA
HETATM   50  H   UNK     0       9.536 -11.220   9.060  0.00  0.00     0.167 HD
ENDBRANCH  47  49
ENDBRANCH  46  47
ENDBRANCH  45  46
ENDBRANCH  11  45
BRANCH  18  51
HETATM   51  C   UNK     0      12.949  -4.134  14.434  0.00  0.00     0.051 C 
BRANCH  51  52
HETATM   52  C   UNK     0      14.421  -4.298  14.088  0.00  0.00     0.114 C 
BRANCH  52  53
HETATM   53  C   UNK     0      15.058  -5.366  14.883  0.00  0.00     0.139 C 
HETATM   54  O   UNK     0      14.385  -6.330  15.281  0.00  0.00    -0.650 OA
BRANCH  53  55
HETATM   55  O   UNK     0      16.396  -5.283  15.184  0.00  0.00    -0.776 OA
HETATM   56  H   UNK     0      17.110  -5.881  14.839  0.00  0.00     0.167 HD
ENDBRANCH  53  55
ENDBRANCH  52  53
ENDBRANCH  51  52
ENDBRANCH  18  51
TORSDOF 16
ENDMDL
MODEL 9
REMARK VINA RESULT:      -9.1     31.636     34.033
REMARK  16 active torsions:
REMARK  status: ('A' for Active; 'I' for Inactive)
REMARK    1  A    between atoms: C_6  and  C_7 
REMARK    2  A    between atoms: C_7  and  C_8 
REMARK    3  A    between atoms: C_8  and  C_9 
REMARK    4  A    between atoms: C_9  and  O_11 
REMARK    5  A    between atoms: C_16  and  C_17 
REMARK    6  A    between atoms: C_17  and  C_18 
REMARK    7  A    between atoms: C_18  and  C_19 
REMARK    8  A    between atoms: C_19  and  O_21 
REMARK    9  A    between atoms: C_28  and  C_29 
REMARK   10  A    between atoms: C_29  and  C_30 
REMARK   11  A    between atoms: C_30  and  C_31 
REMARK   12  A    between atoms: C_31  and  O_33 
REMARK   13  A    between atoms: C_42  and  C_43 
REMARK   14  A    between atoms: C_43  and  C_44 
REMARK   15  A    between atoms: C_44  and  C_45 
REMARK   16  A    between atoms: C_45  and  O_47 
ROOT
HETATM    1  C   UNK     0      10.965  -3.056  16.905  0.00  0.00     0.051 C 
HETATM    2  C   UNK     0      11.794  -3.173  15.643  0.00  0.00    -0.031 A 
HETATM    3  C   UNK     0      12.067  -4.291  14.870  0.00  0.00     0.021 A 
HETATM    4  N   UNK     0      12.879  -3.934  13.848  0.00  0.00    -0.361 N 
HETATM    5  C   UNK     0      13.124  -2.611  13.947  0.00  0.00     0.022 A 
HETATM    6  C   UNK     0      12.462  -2.104  15.060  0.00  0.00    -0.027 A 
HETATM    7  C   UNK     0      13.881  -1.711  13.021  0.00  0.00     0.115 C 
HETATM    8  C   UNK     0      13.644  -1.907  11.534  0.00  0.00     0.021 A 
HETATM    9  N   UNK     0      12.506  -2.241  10.906  0.00  0.00    -0.361 N 
HETATM   10  C   UNK     0      12.781  -2.395   9.593  0.00  0.00     0.022 A 
HETATM   11  C   UNK     0      14.132  -2.144   9.368  0.00  0.00    -0.027 A 
HETATM   12  C   UNK     0      14.681  -1.836  10.587  0.00  0.00    -0.031 A 
HETATM   13  C   UNK     0      16.132  -1.485  10.828  0.00  0.00     0.051 C 
HETATM   14  C   UNK     0      11.799  -2.835   8.511  0.00  0.00     0.115 C 
HETATM   15  C   UNK     0      11.209  -4.217   8.741  0.00  0.00     0.021 A 
HETATM   16  N   UNK     0      10.501  -4.642   9.805  0.00  0.00    -0.361 N 
HETATM   17  C   UNK     0      10.225  -5.940   9.657  0.00  0.00     0.022 A 
HETATM   18  C   UNK     0      10.769  -6.379   8.434  0.00  0.00    -0.027 A 
HETATM   19  C   UNK     0      11.382  -5.291   7.870  0.00  0.00    -0.031 A 
HETATM   20  C   UNK     0      12.070  -5.317   6.517  0.00  0.00     0.051 C 
HETATM   21  C   UNK     0       9.524  -6.896  10.595  0.00  0.00     0.115 C 
HETATM   22  C   UNK     0       9.715  -6.686  12.078  0.00  0.00     0.022 A 
HETATM   23  N   UNK     0      10.836  -6.349  12.731  0.00  0.00    -0.361 N 
HETATM   24  C   UNK     0      10.522  -6.125  14.023  0.00  0.00     0.021 A 
HETATM   25  C   UNK     0       9.169  -6.332  14.209  0.00  0.00    -0.031 A 
HETATM   26  C   UNK     0       8.357  -6.245  15.485  0.00  0.00     0.051 C 
HETATM   27  C   UNK     0       8.631  -6.693  12.979  0.00  0.00    -0.027 A 
HETATM   28  C   UNK     0      11.438  -5.631  15.129  0.00  0.00     0.115 C 
HETATM   29  H   UNK     0      13.307  -4.626  13.086  0.00  0.00     0.165 HD
HETATM   30  H   UNK     0      11.496  -2.320  11.378  0.00  0.00     0.165 HD
HETATM   31  H   UNK     0      10.149  -4.003  10.655  0.00  0.00     0.165 HD
HETATM   32  H   UNK     0      11.867  -6.308  12.294  0.00  0.00     0.165 HD
ENDROOT
BRANCH   6  33
HETATM   33  C   UNK     0      12.420  -0.700  15.607  0.00  0.00     0.051 C 
BRANCH  33  34
HETATM   34  C   UNK     0      11.294   0.086  14.977  0.00  0.00     0.114 C 
BRANCH  34  35
HETATM   35  C   UNK     0      10.407   0.558  16.080  0.00  0.00     0.139 C 
HETATM   36  O   UNK     0      10.782   0.461  17.284  0.00  0.00    -0.650 OA
BRANCH  35  37
HETATM   37  O   UNK     0       9.157   1.118  15.848  0.00  0.00    -0.776 OA
HETATM   38  H   UNK     0       8.922   2.047  16.156  0.00  0.00     0.167 HD
ENDBRANCH  35  37
ENDBRANCH  34  35
ENDBRANCH  33  34
ENDBRANCH   6  33
BRANCH  27  39
HETATM   39  C   UNK     0       7.202  -7.067  12.797  0.00  0.00     0.051 C 
BRANCH  39  40
HETATM   40  C   UNK     0       6.874  -8.478  12.595  0.00  0.00     0.114 C 
BRANCH  40  41
HETATM   41  C   UNK     0       6.890  -9.435  13.679  0.00  0.00     0.139 C 
HETATM   42  O   UNK     0       5.938  -9.607  14.452  0.00  0.00    -0.650 OA
BRANCH  41  43
HETATM   43  O   UNK     0       8.053 -10.230  13.882  0.00  0.00    -0.776 OA
HETATM   44  H   UNK     0       7.866 -11.168  14.217  0.00  0.00     0.167 HD
ENDBRANCH  41  43
ENDBRANCH  40  41
ENDBRANCH  39  40
ENDBRANCH  27  39
BRANCH  11  45
HETATM   45  C   UNK     0      14.894  -2.184   8.071  0.00  0.00     0.051 C 
BRANCH  45  46
HETATM   46  C   UNK     0      14.918  -3.520   7.423  0.00  0.00     0.114 C 
BRANCH  46  47
HETATM   47  C   UNK     0      15.703  -4.426   8.309  0.00  0.00     0.139 C 
HETATM   48  O   UNK     0      15.157  -5.452   8.741  0.00  0.00    -0.650 OA
BRANCH  47  49
HETATM   49  O   UNK     0      17.001  -4.132   8.642  0.00  0.00    -0.776 OA
HETATM   50  H   UNK     0      17.773  -4.237   7.972  0.00  0.00     0.167 HD
ENDBRANCH  47  49
ENDBRANCH  46  47
ENDBRANCH  45  46
ENDBRANCH  11  45
BRANCH  18  51
HETATM   51  C   UNK     0      10.692  -7.756   7.827  0.00  0.00     0.051 C 
BRANCH  51  52
HETATM   52  C   UNK     0       9.245  -7.953   7.401  0.00  0.00     0.114 C 
BRANCH  52  53
HETATM   53  C   UNK     0       8.686  -9.216   7.921  0.00  0.00     0.139 C 
HETATM   54  O   UNK     0       7.485  -9.481   7.750  0.00  0.00    -0.650 OA
BRANCH  53  55
HETATM   55  O   UNK     0       9.500 -10.092   8.596  0.00  0.00    -0.776 OA
HETATM   56  H   UNK     0      10.291 -10.561   8.221  0.00  0.00     0.167 HD
ENDBRANCH  53  55
ENDBRANCH  52  53
ENDBRANCH  51  52
ENDBRANCH  18  51
TORSDOF 16
ENDMDL
MODEL 10
REMARK VINA RESULT:      -9.1      2.191      7.699
REMARK  16 active torsions:
REMARK  status: ('A' for Active; 'I' for Inactive)
REMARK    1  A    between atoms: C_6  and  C_7 
REMARK    2  A    between atoms: C_7  and  C_8 
REMARK    3  A    between atoms: C_8  and  C_9 
REMARK    4  A    between atoms: C_9  and  O_11 
REMARK    5  A    between atoms: C_16  and  C_17 
REMARK    6  A    between atoms: C_17  and  C_18 
REMARK    7  A    between atoms: C_18  and  C_19 
REMARK    8  A    between atoms: C_19  and  O_21 
REMARK    9  A    between atoms: C_28  and  C_29 
REMARK   10  A    between atoms: C_29  and  C_30 
REMARK   11  A    between atoms: C_30  and  C_31 
REMARK   12  A    between atoms: C_31  and  O_33 
REMARK   13  A    between atoms: C_42  and  C_43 
REMARK   14  A    between atoms: C_43  and  C_44 
REMARK   15  A    between atoms: C_44  and  C_45 
REMARK   16  A    between atoms: C_45  and  O_47 
ROOT
HETATM    1  C   UNK     0     -18.304  -4.763  -9.781  0.00  0.00     0.051 C 
HETATM    2  C   UNK     0     -17.463  -3.617 -10.305  0.00  0.00    -0.031 A 
HETATM    3  C   UNK     0     -17.524  -2.267  -9.996  0.00  0.00     0.021 A 
HETATM    4  N   UNK     0     -16.599  -1.604 -10.730  0.00  0.00    -0.361 N 
HETATM    5  C   UNK     0     -15.944  -2.503 -11.493  0.00  0.00     0.022 A 
HETATM    6  C   UNK     0     -16.461  -3.772 -11.255  0.00  0.00    -0.027 A 
HETATM    7  C   UNK     0     -14.775  -2.303 -12.406  0.00  0.00     0.115 C 
HETATM    8  C   UNK     0     -13.661  -1.402 -11.902  0.00  0.00     0.021 A 
HETATM    9  N   UNK     0     -13.203  -1.262 -10.648  0.00  0.00    -0.361 N 
HETATM   10  C   UNK     0     -12.271  -0.285 -10.650  0.00  0.00     0.022 A 
HETATM   11  C   UNK     0     -12.119   0.211 -11.941  0.00  0.00    -0.027 A 
HETATM   12  C   UNK     0     -12.992  -0.488 -12.735  0.00  0.00    -0.031 A 
HETATM   13  C   UNK     0     -13.169  -0.291 -14.224  0.00  0.00     0.051 C 
HETATM   14  C   UNK     0     -11.529   0.255  -9.430  0.00  0.00     0.115 C 
HETATM   15  C   UNK     0     -12.438   0.866  -8.377  0.00  0.00     0.021 A 
HETATM   16  N   UNK     0     -13.449   0.270  -7.718  0.00  0.00    -0.361 N 
HETATM   17  C   UNK     0     -14.047   1.165  -6.928  0.00  0.00     0.022 A 
HETATM   18  C   UNK     0     -13.388   2.402  -7.072  0.00  0.00    -0.027 A 
HETATM   19  C   UNK     0     -12.381   2.201  -7.981  0.00  0.00    -0.031 A 
HETATM   20  C   UNK     0     -11.397   3.277  -8.402  0.00  0.00     0.051 C 
HETATM   21  C   UNK     0     -15.265   1.021  -6.045  0.00  0.00     0.115 C 
HETATM   22  C   UNK     0     -16.362   0.094  -6.514  0.00  0.00     0.022 A 
HETATM   23  N   UNK     0     -16.836  -0.069  -7.755  0.00  0.00    -0.361 N 
HETATM   24  C   UNK     0     -17.705  -1.100  -7.745  0.00  0.00     0.021 A 
HETATM   25  C   UNK     0     -17.801  -1.606  -6.462  0.00  0.00    -0.031 A 
HETATM   26  C   UNK     0     -18.672  -2.731  -5.944  0.00  0.00     0.051 C 
HETATM   27  C   UNK     0     -16.950  -0.858  -5.656  0.00  0.00    -0.027 A 
HETATM   28  C   UNK     0     -18.428  -1.719  -8.929  0.00  0.00     0.115 C 
HETATM   29  H   UNK     0     -16.443  -0.500 -10.732  0.00  0.00     0.165 HD
HETATM   30  H   UNK     0     -13.498  -1.885  -9.769  0.00  0.00     0.165 HD
HETATM   31  H   UNK     0     -13.718  -0.817  -7.774  0.00  0.00     0.165 HD
HETATM   32  H   UNK     0     -16.594   0.570  -8.644  0.00  0.00     0.165 HD
ENDROOT
BRANCH   6  33
HETATM   33  C   UNK     0     -16.081  -5.102 -11.854  0.00  0.00     0.051 C 
BRANCH  33  34
HETATM   34  C   UNK     0     -14.977  -5.753 -11.056  0.00  0.00     0.114 C 
BRANCH  34  35
HETATM   35  C   UNK     0     -14.116  -6.504 -12.015  0.00  0.00     0.139 C 
HETATM   36  O   UNK     0     -13.177  -5.914 -12.624  0.00  0.00    -0.650 OA
BRANCH  35  37
HETATM   37  O   UNK     0     -14.294  -7.856 -12.282  0.00  0.00    -0.776 OA
HETATM   38  H   UNK     0     -15.047  -8.386 -11.874  0.00  0.00     0.167 HD
ENDBRANCH  35  37
ENDBRANCH  34  35
ENDBRANCH  33  34
ENDBRANCH   6  33
BRANCH  27  39
HETATM   39  C   UNK     0     -16.837  -1.064  -4.187  0.00  0.00     0.051 C 
BRANCH  39  40
HETATM   40  C   UNK     0     -17.565  -0.157  -3.301  0.00  0.00     0.114 C 
BRANCH  40  41
HETATM   41  C   UNK     0     -18.987  -0.281  -3.070  0.00  0.00     0.139 C 
HETATM   42  O   UNK     0     -19.535  -1.340  -2.736  0.00  0.00    -0.650 OA
BRANCH  41  43
HETATM   43  O   UNK     0     -19.816   0.865  -3.231  0.00  0.00    -0.776 OA
HETATM   44  H   UNK     0     -20.311   1.146  -2.393  0.00  0.00     0.167 HD
ENDBRANCH  41  43
ENDBRANCH  40  41
ENDBRANCH  39  40
ENDBRANCH  27  39
BRANCH  11  45
HETATM   45  C   UNK     0     -11.196   1.295 -12.431  0.00  0.00     0.051 C 
BRANCH  45  46
HETATM   46  C   UNK     0      -9.852   0.809 -12.835  0.00  0.00     0.114 C 
BRANCH  46  47
HETATM   47  C   UNK     0      -9.299   1.797 -13.806  0.00  0.00     0.139 C 
HETATM   48  O   UNK     0     -10.089   2.433 -14.518  0.00  0.00    -0.650 OA
BRANCH  47  49
HETATM   49  O   UNK     0      -7.946   1.999 -13.909  0.00  0.00    -0.776 OA
HETATM   50  H   UNK     0      -7.265   1.351 -13.494  0.00  0.00     0.167 HD
ENDBRANCH  47  49
ENDBRANCH  46  47
ENDBRANCH  45  46
ENDBRANCH  11  45
BRANCH  18  51
HETATM   51  C   UNK     0     -13.687   3.699  -6.366  0.00  0.00     0.051 C 
BRANCH  51  52
HETATM   52  C   UNK     0     -14.625   4.474  -7.279  0.00  0.00     0.114 C 
BRANCH  52  53
HETATM   53  C   UNK     0     -14.977   5.791  -6.715  0.00  0.00     0.139 C 
HETATM   54  O   UNK     0     -14.791   6.823  -7.380  0.00  0.00    -0.650 OA
BRANCH  53  55
HETATM   55  O   UNK     0     -15.507   5.869  -5.450  0.00  0.00    -0.776 OA
HETATM   56  H   UNK     0     -15.015   6.117  -4.624  0.00  0.00     0.167 HD
ENDBRANCH  53  55
ENDBRANCH  52  53
ENDBRANCH  51  52
ENDBRANCH  18  51
TORSDOF 16
ENDMDL
MODEL 11
REMARK VINA RESULT:      -9.0      1.657      7.165
REMARK  16 active torsions:
REMARK  status: ('A' for Active; 'I' for Inactive)
REMARK    1  A    between atoms: C_6  and  C_7 
REMARK    2  A    between atoms: C_7  and  C_8 
REMARK    3  A    between atoms: C_8  and  C_9 
REMARK    4  A    between atoms: C_9  and  O_11 
REMARK    5  A    between atoms: C_16  and  C_17 
REMARK    6  A    between atoms: C_17  and  C_18 
REMARK    7  A    between atoms: C_18  and  C_19 
REMARK    8  A    between atoms: C_19  and  O_21 
REMARK    9  A    between atoms: C_28  and  C_29 
REMARK   10  A    between atoms: C_29  and  C_30 
REMARK   11  A    between atoms: C_30  and  C_31 
REMARK   12  A    between atoms: C_31  and  O_33 
REMARK   13  A    between atoms: C_42  and  C_43 
REMARK   14  A    between atoms: C_43  and  C_44 
REMARK   15  A    between atoms: C_44  and  C_45 
REMARK   16  A    between atoms: C_45  and  O_47 
ROOT
HETATM    1  C   UNK     0     -10.244   0.236 -13.284  0.00  0.00     0.051 C 
HETATM    2  C   UNK     0     -11.300   0.474 -12.223  0.00  0.00    -0.031 A 
HETATM    3  C   UNK     0     -12.676   0.330 -12.304  0.00  0.00     0.021 A 
HETATM    4  N   UNK     0     -13.227   0.685 -11.119  0.00  0.00    -0.361 N 
HETATM    5  C   UNK     0     -12.231   1.044 -10.282  0.00  0.00     0.022 A 
HETATM    6  C   UNK     0     -11.012   0.926 -10.942  0.00  0.00    -0.027 A 
HETATM    7  C   UNK     0     -12.295   1.426  -8.836  0.00  0.00     0.115 C 
HETATM    8  C   UNK     0     -13.207   0.596  -7.951  0.00  0.00     0.021 A 
HETATM    9  N   UNK     0     -13.464  -0.720  -8.016  0.00  0.00    -0.361 N 
HETATM   10  C   UNK     0     -14.405  -1.009  -7.092  0.00  0.00     0.022 A 
HETATM   11  C   UNK     0     -14.756   0.150  -6.406  0.00  0.00    -0.027 A 
HETATM   12  C   UNK     0     -14.005   1.165  -6.943  0.00  0.00    -0.031 A 
HETATM   13  C   UNK     0     -14.049   2.611  -6.503  0.00  0.00     0.051 C 
HETATM   14  C   UNK     0     -15.046  -2.374  -6.855  0.00  0.00     0.115 C 
HETATM   15  C   UNK     0     -15.795  -2.919  -8.059  0.00  0.00     0.021 A 
HETATM   16  N   UNK     0     -15.305  -3.166  -9.289  0.00  0.00    -0.361 N 
HETATM   17  C   UNK     0     -16.298  -3.572 -10.083  0.00  0.00     0.022 A 
HETATM   18  C   UNK     0     -17.491  -3.600  -9.333  0.00  0.00    -0.027 A 
HETATM   19  C   UNK     0     -17.162  -3.191  -8.067  0.00  0.00    -0.031 A 
HETATM   20  C   UNK     0     -18.155  -3.110  -6.921  0.00  0.00     0.051 C 
HETATM   21  C   UNK     0     -16.289  -3.903 -11.558  0.00  0.00     0.115 C 
HETATM   22  C   UNK     0     -15.354  -3.114 -12.444  0.00  0.00     0.022 A 
HETATM   23  N   UNK     0     -15.075  -1.805 -12.400  0.00  0.00    -0.361 N 
HETATM   24  C   UNK     0     -14.081  -1.554 -13.275  0.00  0.00     0.021 A 
HETATM   25  C   UNK     0     -13.717  -2.728 -13.906  0.00  0.00    -0.031 A 
HETATM   26  C   UNK     0     -12.682  -2.947 -14.990  0.00  0.00     0.051 C 
HETATM   27  C   UNK     0     -14.518  -3.741 -13.391  0.00  0.00    -0.027 A 
HETATM   28  C   UNK     0     -13.364  -0.236 -13.514  0.00  0.00     0.115 C 
HETATM   29  H   UNK     0     -14.318   0.718 -10.895  0.00  0.00     0.165 HD
HETATM   30  H   UNK     0     -12.948  -1.456  -8.679  0.00  0.00     0.165 HD
HETATM   31  H   UNK     0     -14.228  -3.099  -9.591  0.00  0.00     0.165 HD
HETATM   32  H   UNK     0     -15.608  -1.037 -11.781  0.00  0.00     0.165 HD
ENDROOT
BRANCH   6  33
HETATM   33  C   UNK     0      -9.614   1.210 -10.454  0.00  0.00     0.051 C 
BRANCH  33  34
HETATM   34  C   UNK     0      -9.141   2.559 -10.939  0.00  0.00     0.114 C 
BRANCH  34  35
HETATM   35  C   UNK     0      -8.723   3.343  -9.741  0.00  0.00     0.139 C 
HETATM   36  O   UNK     0      -7.566   3.851  -9.685  0.00  0.00    -0.650 OA
BRANCH  35  37
HETATM   37  O   UNK     0      -9.562   3.554  -8.654  0.00  0.00    -0.776 OA
HETATM   38  H   UNK     0     -10.560   3.644  -8.758  0.00  0.00     0.167 HD
ENDBRANCH  35  37
ENDBRANCH  34  35
ENDBRANCH  33  34
ENDBRANCH   6  33
BRANCH  27  39
HETATM   39  C   UNK     0     -14.466  -5.144 -13.882  0.00  0.00     0.051 C 
BRANCH  39  40
HETATM   40  C   UNK     0     -13.659  -6.111 -13.138  0.00  0.00     0.114 C 
BRANCH  40  41
HETATM   41  C   UNK     0     -14.100  -6.680 -11.884  0.00  0.00     0.139 C 
HETATM   42  O   UNK     0     -14.812  -7.690 -11.805  0.00  0.00    -0.650 OA
BRANCH  41  43
HETATM   43  O   UNK     0     -13.704  -6.059 -10.666  0.00  0.00    -0.776 OA
HETATM   44  H   UNK     0     -14.054  -6.513  -9.831  0.00  0.00     0.167 HD
ENDBRANCH  41  43
ENDBRANCH  40  41
ENDBRANCH  39  40
ENDBRANCH  27  39
BRANCH  11  45
HETATM   45  C   UNK     0     -15.750   0.319  -5.289  0.00  0.00     0.051 C 
BRANCH  45  46
HETATM   46  C   UNK     0     -15.247  -0.109  -3.959  0.00  0.00     0.114 C 
BRANCH  46  47
HETATM   47  C   UNK     0     -14.833   1.122  -3.227  0.00  0.00     0.139 C 
HETATM   48  O   UNK     0     -13.731   1.132  -2.661  0.00  0.00    -0.650 OA
BRANCH  47  49
HETATM   49  O   UNK     0     -15.654   2.221  -3.178  0.00  0.00    -0.776 OA
HETATM   50  H   UNK     0     -15.348   3.112  -2.772  0.00  0.00     0.167 HD
ENDBRANCH  47  49
ENDBRANCH  46  47
ENDBRANCH  45  46
ENDBRANCH  11  45
BRANCH  18  51
HETATM   51  C   UNK     0     -18.865  -4.015  -9.792  0.00  0.00     0.051 C 
BRANCH  51  52
HETATM   52  C   UNK     0     -19.182  -3.162 -11.011  0.00  0.00     0.114 C 
BRANCH  52  53
HETATM   53  C   UNK     0     -19.284  -1.730 -10.668  0.00  0.00     0.139 C 
HETATM   54  O   UNK     0     -18.451  -0.924 -11.113  0.00  0.00    -0.650 OA
BRANCH  53  55
HETATM   55  O   UNK     0     -20.302  -1.297  -9.853  0.00  0.00    -0.776 OA
HETATM   56  H   UNK     0     -20.523  -0.351  -9.649  0.00  0.00     0.167 HD
ENDBRANCH  53  55
ENDBRANCH  52  53
ENDBRANCH  51  52
ENDBRANCH  18  51
TORSDOF 16
ENDMDL
MODEL 12
REMARK VINA RESULT:      -8.9      3.714      8.666
REMARK  16 active torsions:
REMARK  status: ('A' for Active; 'I' for Inactive)
REMARK    1  A    between atoms: C_6  and  C_7 
REMARK    2  A    between atoms: C_7  and  C_8 
REMARK    3  A    between atoms: C_8  and  C_9 
REMARK    4  A    between atoms: C_9  and  O_11 
REMARK    5  A    between atoms: C_16  and  C_17 
REMARK    6  A    between atoms: C_17  and  C_18 
REMARK    7  A    between atoms: C_18  and  C_19 
REMARK    8  A    between atoms: C_19  and  O_21 
REMARK    9  A    between atoms: C_28  and  C_29 
REMARK   10  A    between atoms: C_29  and  C_30 
REMARK   11  A    between atoms: C_30  and  C_31 
REMARK   12  A    between atoms: C_31  and  O_33 
REMARK   13  A    between atoms: C_42  and  C_43 
REMARK   14  A    between atoms: C_43  and  C_44 
REMARK   15  A    between atoms: C_44  and  C_45 
REMARK   16  A    between atoms: C_45  and  O_47 
ROOT
HETATM    1  C   UNK     0     -18.919  -7.841  -6.191  0.00  0.00     0.051 C 
HETATM    2  C   UNK     0     -18.358  -7.223  -7.455  0.00  0.00    -0.031 A 
HETATM    3  C   UNK     0     -18.542  -5.949  -7.969  0.00  0.00     0.021 A 
HETATM    4  N   UNK     0     -17.874  -5.846  -9.142  0.00  0.00    -0.361 N 
HETATM    5  C   UNK     0     -17.261  -7.023  -9.383  0.00  0.00     0.022 A 
HETATM    6  C   UNK     0     -17.546  -7.909  -8.349  0.00  0.00    -0.027 A 
HETATM    7  C   UNK     0     -16.328  -7.401 -10.491  0.00  0.00     0.115 C 
HETATM    8  C   UNK     0     -15.271  -6.379 -10.870  0.00  0.00     0.021 A 
HETATM    9  N   UNK     0     -14.603  -5.531 -10.073  0.00  0.00    -0.361 N 
HETATM   10  C   UNK     0     -13.831  -4.744 -10.851  0.00  0.00     0.022 A 
HETATM   11  C   UNK     0     -13.999  -5.101 -12.186  0.00  0.00    -0.027 A 
HETATM   12  C   UNK     0     -14.905  -6.131 -12.205  0.00  0.00    -0.031 A 
HETATM   13  C   UNK     0     -15.390  -6.844 -13.447  0.00  0.00     0.051 C 
HETATM   14  C   UNK     0     -12.948  -3.594 -10.375  0.00  0.00     0.115 C 
HETATM   15  C   UNK     0     -13.713  -2.477  -9.682  0.00  0.00     0.021 A 
HETATM   16  N   UNK     0     -14.488  -2.570  -8.585  0.00  0.00    -0.361 N 
HETATM   17  C   UNK     0     -15.038  -1.380  -8.335  0.00  0.00     0.022 A 
HETATM   18  C   UNK     0     -14.593  -0.465  -9.310  0.00  0.00    -0.027 A 
HETATM   19  C   UNK     0     -13.763  -1.165 -10.147  0.00  0.00    -0.031 A 
HETATM   20  C   UNK     0     -13.033  -0.543 -11.324  0.00  0.00     0.051 C 
HETATM   21  C   UNK     0     -16.033  -0.974  -7.272  0.00  0.00     0.115 C 
HETATM   22  C   UNK     0     -17.063  -1.996  -6.853  0.00  0.00     0.022 A 
HETATM   23  N   UNK     0     -17.740  -2.856  -7.624  0.00  0.00    -0.361 N 
HETATM   24  C   UNK     0     -18.443  -3.682  -6.822  0.00  0.00     0.021 A 
HETATM   25  C   UNK     0     -18.221  -3.338  -5.503  0.00  0.00    -0.031 A 
HETATM   26  C   UNK     0     -18.816  -3.942  -4.247  0.00  0.00     0.051 C 
HETATM   27  C   UNK     0     -17.341  -2.262  -5.496  0.00  0.00    -0.027 A 
HETATM   28  C   UNK     0     -19.289  -4.875  -7.230  0.00  0.00     0.115 C 
HETATM   29  H   UNK     0     -17.872  -4.954  -9.811  0.00  0.00     0.165 HD
HETATM   30  H   UNK     0     -14.637  -5.519  -8.956  0.00  0.00     0.165 HD
HETATM   31  H   UNK     0     -14.612  -3.483  -7.946  0.00  0.00     0.165 HD
HETATM   32  H   UNK     0     -17.763  -2.861  -8.745  0.00  0.00     0.165 HD
ENDROOT
BRANCH   6  33
HETATM   33  C   UNK     0     -17.112  -9.339  -8.150  0.00  0.00     0.051 C 
BRANCH  33  34
HETATM   34  C   UNK     0     -17.985 -10.279  -8.947  0.00  0.00     0.114 C 
BRANCH  34  35
HETATM   35  C   UNK     0     -17.740 -11.658  -8.435  0.00  0.00     0.139 C 
HETATM   36  O   UNK     0     -16.759 -12.332  -8.863  0.00  0.00    -0.650 OA
BRANCH  35  37
HETATM   37  O   UNK     0     -18.555 -12.259  -7.483  0.00  0.00    -0.776 OA
HETATM   38  H   UNK     0     -19.462 -12.630  -7.713  0.00  0.00     0.167 HD
ENDBRANCH  35  37
ENDBRANCH  34  35
ENDBRANCH  33  34
ENDBRANCH   6  33
BRANCH  27  39
HETATM   39  C   UNK     0     -16.920  -1.566  -4.250  0.00  0.00     0.051 C 
BRANCH  39  40
HETATM   40  C   UNK     0     -15.618  -1.902  -3.674  0.00  0.00     0.114 C 
BRANCH  40  41
HETATM   41  C   UNK     0     -14.536  -0.946  -3.604  0.00  0.00     0.139 C 
HETATM   42  O   UNK     0     -13.470  -1.162  -3.012  0.00  0.00    -0.650 OA
BRANCH  41  43
HETATM   43  O   UNK     0     -14.688   0.317  -4.244  0.00  0.00    -0.776 OA
HETATM   44  H   UNK     0     -14.732   1.105  -3.610  0.00  0.00     0.167 HD
ENDBRANCH  41  43
ENDBRANCH  40  41
ENDBRANCH  39  40
ENDBRANCH  27  39
BRANCH  11  45
HETATM   45  C   UNK     0     -13.343  -4.514 -13.407  0.00  0.00     0.051 C 
BRANCH  45  46
HETATM   46  C   UNK     0     -14.041  -3.324 -13.957  0.00  0.00     0.114 C 
BRANCH  46  47
HETATM   47  C   UNK     0     -13.026  -2.518 -14.694  0.00  0.00     0.139 C 
HETATM   48  O   UNK     0     -13.304  -2.111 -15.830  0.00  0.00    -0.650 OA
BRANCH  47  49
HETATM   49  O   UNK     0     -11.809  -2.233 -14.127  0.00  0.00    -0.776 OA
HETATM   50  H   UNK     0     -11.486  -2.694 -13.268  0.00  0.00     0.167 HD
ENDBRANCH  47  49
ENDBRANCH  46  47
ENDBRANCH  45  46
ENDBRANCH  11  45
BRANCH  18  51
HETATM   51  C   UNK     0     -14.924   1.000  -9.425  0.00  0.00     0.051 C 
BRANCH  51  52
HETATM   52  C   UNK     0     -13.985   1.725  -8.473  0.00  0.00     0.114 C 
BRANCH  52  53
HETATM   53  C   UNK     0     -14.707   2.679  -7.610  0.00  0.00     0.139 C 
HETATM   54  O   UNK     0     -15.065   3.779  -8.061  0.00  0.00    -0.650 OA
BRANCH  53  55
HETATM   55  O   UNK     0     -14.978   2.345  -6.305  0.00  0.00    -0.776 OA
HETATM   56  H   UNK     0     -14.974   2.965  -5.530  0.00  0.00     0.167 HD
ENDBRANCH  53  55
ENDBRANCH  52  53
ENDBRANCH  51  52
ENDBRANCH  18  51
TORSDOF 16
ENDMDL
MODEL 13
REMARK VINA RESULT:      -8.9     31.405     34.739
REMARK  16 active torsions:
REMARK  status: ('A' for Active; 'I' for Inactive)
REMARK    1  A    between atoms: C_6  and  C_7 
REMARK    2  A    between atoms: C_7  and  C_8 
REMARK    3  A    between atoms: C_8  and  C_9 
REMARK    4  A    between atoms: C_9  and  O_11 
REMARK    5  A    between atoms: C_16  and  C_17 
REMARK    6  A    between atoms: C_17  and  C_18 
REMARK    7  A    between atoms: C_18  and  C_19 
REMARK    8  A    between atoms: C_19  and  O_21 
REMARK    9  A    between atoms: C_28  and  C_29 
REMARK   10  A    between atoms: C_29  and  C_30 
REMARK   11  A    between atoms: C_30  and  C_31 
REMARK   12  A    between atoms: C_31  and  O_33 
REMARK   13  A    between atoms: C_42  and  C_43 
REMARK   14  A    between atoms: C_43  and  C_44 
REMARK   15  A    between atoms: C_44  and  C_45 
REMARK   16  A    between atoms: C_45  and  O_47 
ROOT
HETATM    1  C   UNK     0      14.796  -0.592   8.350  0.00  0.00     0.051 C 
HETATM    2  C   UNK     0      14.256  -2.002   8.479  0.00  0.00    -0.031 A 
HETATM    3  C   UNK     0      14.482  -2.943   9.471  0.00  0.00     0.021 A 
HETATM    4  N   UNK     0      13.818  -4.081   9.159  0.00  0.00    -0.361 N 
HETATM    5  C   UNK     0      13.167  -3.883   7.994  0.00  0.00     0.022 A 
HETATM    6  C   UNK     0      13.422  -2.594   7.539  0.00  0.00    -0.027 A 
HETATM    7  C   UNK     0      12.223  -4.787   7.265  0.00  0.00     0.115 C 
HETATM    8  C   UNK     0      11.200  -5.527   8.109  0.00  0.00     0.021 A 
HETATM    9  N   UNK     0      10.560  -5.103   9.210  0.00  0.00    -0.361 N 
HETATM   10  C   UNK     0       9.814  -6.124   9.681  0.00  0.00     0.022 A 
HETATM   11  C   UNK     0       9.971  -7.234   8.856  0.00  0.00    -0.027 A 
HETATM   12  C   UNK     0      10.842  -6.865   7.864  0.00  0.00    -0.031 A 
HETATM   13  C   UNK     0      11.305  -7.754   6.731  0.00  0.00     0.051 C 
HETATM   14  C   UNK     0       8.969  -6.112  10.952  0.00  0.00     0.115 C 
HETATM   15  C   UNK     0       9.769  -5.866  12.221  0.00  0.00     0.021 A 
HETATM   16  N   UNK     0      10.540  -4.801  12.512  0.00  0.00    -0.361 N 
HETATM   17  C   UNK     0      11.129  -4.996  13.694  0.00  0.00     0.022 A 
HETATM   18  C   UNK     0      10.715  -6.243  14.202  0.00  0.00    -0.027 A 
HETATM   19  C   UNK     0       9.862  -6.777  13.271  0.00  0.00    -0.031 A 
HETATM   20  C   UNK     0       9.154  -8.109  13.440  0.00  0.00     0.051 C 
HETATM   21  C   UNK     0      12.136  -4.142  14.430  0.00  0.00     0.115 C 
HETATM   22  C   UNK     0      13.132  -3.366  13.601  0.00  0.00     0.022 A 
HETATM   23  N   UNK     0      13.782  -3.762  12.498  0.00  0.00    -0.361 N 
HETATM   24  C   UNK     0      14.457  -2.705  12.003  0.00  0.00     0.021 A 
HETATM   25  C   UNK     0      14.245  -1.605  12.811  0.00  0.00    -0.031 A 
HETATM   26  C   UNK     0      14.819  -0.209  12.690  0.00  0.00     0.051 C 
HETATM   27  C   UNK     0      13.401  -2.003  13.841  0.00  0.00    -0.027 A 
HETATM   28  C   UNK     0      15.264  -2.638  10.717  0.00  0.00     0.115 C 
HETATM   29  H   UNK     0      13.845  -5.029   9.744  0.00  0.00     0.165 HD
HETATM   30  H   UNK     0      10.593  -4.067   9.629  0.00  0.00     0.165 HD
HETATM   31  H   UNK     0      10.634  -3.871  11.893  0.00  0.00     0.165 HD
HETATM   32  H   UNK     0      13.804  -4.803  12.084  0.00  0.00     0.165 HD
ENDROOT
BRANCH   6  33
HETATM   33  C   UNK     0      12.942  -1.891   6.294  0.00  0.00     0.051 C 
BRANCH  33  34
HETATM   34  C   UNK     0      13.770  -2.296   5.098  0.00  0.00     0.114 C 
BRANCH  34  35
HETATM   35  C   UNK     0      13.289  -1.500   3.932  0.00  0.00     0.139 C 
HETATM   36  O   UNK     0      12.353  -1.941   3.202  0.00  0.00    -0.650 OA
BRANCH  35  37
HETATM   37  O   UNK     0      13.827  -0.264   3.595  0.00  0.00    -0.776 OA
HETATM   38  H   UNK     0      14.763  -0.168   3.238  0.00  0.00     0.167 HD
ENDBRANCH  35  37
ENDBRANCH  34  35
ENDBRANCH  33  34
ENDBRANCH   6  33
BRANCH  27  39
HETATM   39  C   UNK     0      13.002  -1.102  14.957  0.00  0.00     0.051 C 
BRANCH  39  40
HETATM   40  C   UNK     0      11.662  -0.518  14.931  0.00  0.00     0.114 C 
BRANCH  40  41
HETATM   41  C   UNK     0      11.411   0.852  15.320  0.00  0.00     0.139 C 
HETATM   42  O   UNK     0      10.732   1.169  16.306  0.00  0.00    -0.650 OA
BRANCH  41  43
HETATM   43  O   UNK     0      11.966   1.905  14.539  0.00  0.00    -0.776 OA
HETATM   44  H   UNK     0      11.316   2.334  13.892  0.00  0.00     0.167 HD
ENDBRANCH  41  43
ENDBRANCH  40  41
ENDBRANCH  39  40
ENDBRANCH  27  39
BRANCH  11  45
HETATM   45  C   UNK     0       9.335  -8.594   8.975  0.00  0.00     0.051 C 
BRANCH  45  46
HETATM   46  C   UNK     0       8.003  -8.699   8.328  0.00  0.00     0.114 C 
BRANCH  46  47
HETATM   47  C   UNK     0       7.220  -9.713   9.091  0.00  0.00     0.139 C 
HETATM   48  O   UNK     0       6.167  -9.358   9.639  0.00  0.00    -0.650 OA
BRANCH  47  49
HETATM   49  O   UNK     0       7.655 -11.010   9.186  0.00  0.00    -0.776 OA
HETATM   50  H   UNK     0       7.042 -11.807   8.976  0.00  0.00     0.167 HD
ENDBRANCH  47  49
ENDBRANCH  46  47
ENDBRANCH  45  46
ENDBRANCH  11  45
BRANCH  18  51
HETATM   51  C   UNK     0      11.094  -6.882  15.513  0.00  0.00     0.051 C 
BRANCH  51  52
HETATM   52  C   UNK     0      10.171  -6.280  16.562  0.00  0.00     0.114 C 
BRANCH  52  53
HETATM   53  C   UNK     0       9.493  -7.321  17.359  0.00  0.00     0.139 C 
HETATM   54  O   UNK     0       8.255  -7.413  17.335  0.00  0.00    -0.650 OA
BRANCH  53  55
HETATM   55  O   UNK     0      10.238  -8.181  18.128  0.00  0.00    -0.776 OA
HETATM   56  H   UNK     0       9.910  -8.700  18.908  0.00  0.00     0.167 HD
ENDBRANCH  53  55
ENDBRANCH  52  53
ENDBRANCH  51  52
ENDBRANCH  18  51
TORSDOF 16
ENDMDL
MODEL 14
REMARK VINA RESULT:      -8.9      2.787      7.557
REMARK  16 active torsions:
REMARK  status: ('A' for Active; 'I' for Inactive)
REMARK    1  A    between atoms: C_6  and  C_7 
REMARK    2  A    between atoms: C_7  and  C_8 
REMARK    3  A    between atoms: C_8  and  C_9 
REMARK    4  A    between atoms: C_9  and  O_11 
REMARK    5  A    between atoms: C_16  and  C_17 
REMARK    6  A    between atoms: C_17  and  C_18 
REMARK    7  A    between atoms: C_18  and  C_19 
REMARK    8  A    between atoms: C_19  and  O_21 
REMARK    9  A    between atoms: C_28  and  C_29 
REMARK   10  A    between atoms: C_29  and  C_30 
REMARK   11  A    between atoms: C_30  and  C_31 
REMARK   12  A    between atoms: C_31  and  O_33 
REMARK   13  A    between atoms: C_42  and  C_43 
REMARK   14  A    between atoms: C_43  and  C_44 
REMARK   15  A    between atoms: C_44  and  C_45 
REMARK   16  A    between atoms: C_45  and  O_47 
ROOT
HETATM    1  C   UNK     0     -18.421  -4.792  -6.579  0.00  0.00     0.051 C 
HETATM    2  C   UNK     0     -17.442  -3.751  -6.076  0.00  0.00    -0.031 A 
HETATM    3  C   UNK     0     -16.065  -3.694  -6.225  0.00  0.00     0.021 A 
HETATM    4  N   UNK     0     -15.597  -2.597  -5.582  0.00  0.00    -0.361 N 
HETATM    5  C   UNK     0     -16.647  -1.950  -5.036  0.00  0.00     0.022 A 
HETATM    6  C   UNK     0     -17.816  -2.646  -5.323  0.00  0.00    -0.027 A 
HETATM    7  C   UNK     0     -16.684  -0.643  -4.306  0.00  0.00     0.115 C 
HETATM    8  C   UNK     0     -15.846   0.484  -4.883  0.00  0.00     0.021 A 
HETATM    9  N   UNK     0     -15.598   0.766  -6.172  0.00  0.00    -0.361 N 
HETATM   10  C   UNK     0     -14.730   1.799  -6.215  0.00  0.00     0.022 A 
HETATM   11  C   UNK     0     -14.417   2.199  -4.919  0.00  0.00    -0.027 A 
HETATM   12  C   UNK     0     -15.117   1.375  -4.075  0.00  0.00    -0.031 A 
HETATM   13  C   UNK     0     -15.091   1.444  -2.565  0.00  0.00     0.051 C 
HETATM   14  C   UNK     0     -14.121   2.412  -7.472  0.00  0.00     0.115 C 
HETATM   15  C   UNK     0     -13.292   1.438  -8.294  0.00  0.00     0.021 A 
HETATM   16  N   UNK     0     -13.695   0.276  -8.842  0.00  0.00    -0.361 N 
HETATM   17  C   UNK     0     -12.651  -0.319  -9.424  0.00  0.00     0.022 A 
HETATM   18  C   UNK     0     -11.516   0.499  -9.256  0.00  0.00    -0.027 A 
HETATM   19  C   UNK     0     -11.931   1.597  -8.548  0.00  0.00    -0.031 A 
HETATM   20  C   UNK     0     -11.023   2.755  -8.177  0.00  0.00     0.051 C 
HETATM   21  C   UNK     0     -12.558  -1.663 -10.111  0.00  0.00     0.115 C 
HETATM   22  C   UNK     0     -13.419  -2.782  -9.574  0.00  0.00     0.022 A 
HETATM   23  N   UNK     0     -13.687  -3.084  -8.297  0.00  0.00    -0.361 N 
HETATM   24  C   UNK     0     -14.613  -4.063  -8.279  0.00  0.00     0.021 A 
HETATM   25  C   UNK     0     -14.942  -4.407  -9.576  0.00  0.00    -0.031 A 
HETATM   26  C   UNK     0     -15.898  -5.475 -10.065  0.00  0.00     0.051 C 
HETATM   27  C   UNK     0     -14.190  -3.601 -10.423  0.00  0.00    -0.027 A 
HETATM   28  C   UNK     0     -15.298  -4.673  -7.068  0.00  0.00     0.115 C 
HETATM   29  H   UNK     0     -14.525  -2.310  -5.486  0.00  0.00     0.165 HD
HETATM   30  H   UNK     0     -16.073   0.271  -7.054  0.00  0.00     0.165 HD
HETATM   31  H   UNK     0     -14.747  -0.110  -8.860  0.00  0.00     0.165 HD
HETATM   32  H   UNK     0     -13.192  -2.637  -7.396  0.00  0.00     0.165 HD
ENDROOT
BRANCH   6  33
HETATM   33  C   UNK     0     -19.243  -2.346  -4.939  0.00  0.00     0.051 C 
BRANCH  33  34
HETATM   34  C   UNK     0     -19.557  -2.903  -3.571  0.00  0.00     0.114 C 
BRANCH  34  35
HETATM   35  C   UNK     0     -20.787  -2.216  -3.080  0.00  0.00     0.139 C 
HETATM   36  O   UNK     0     -21.131  -1.101  -3.569  0.00  0.00    -0.650 OA
BRANCH  35  37
HETATM   37  O   UNK     0     -21.600  -2.752  -2.089  0.00  0.00    -0.776 OA
HETATM   38  H   UNK     0     -22.466  -2.317  -1.815  0.00  0.00     0.167 HD
ENDBRANCH  35  37
ENDBRANCH  34  35
ENDBRANCH  33  34
ENDBRANCH   6  33
BRANCH  27  39
HETATM   39  C   UNK     0     -14.222  -3.731 -11.905  0.00  0.00     0.051 C 
BRANCH  39  40
HETATM   40  C   UNK     0     -13.359  -4.732 -12.532  0.00  0.00     0.114 C 
BRANCH  40  41
HETATM   41  C   UNK     0     -12.424  -4.394 -13.581  0.00  0.00     0.139 C 
HETATM   42  O   UNK     0     -12.595  -3.458 -14.374  0.00  0.00    -0.650 OA
BRANCH  41  43
HETATM   43  O   UNK     0     -11.237  -5.169 -13.725  0.00  0.00    -0.776 OA
HETATM   44  H   UNK     0     -10.434  -4.647 -14.053  0.00  0.00     0.167 HD
ENDBRANCH  41  43
ENDBRANCH  40  41
ENDBRANCH  39  40
ENDBRANCH  27  39
BRANCH  11  45
HETATM   45  C   UNK     0     -13.504   3.308  -4.470  0.00  0.00     0.051 C 
BRANCH  45  46
HETATM   46  C   UNK     0     -14.196   4.596  -4.214  0.00  0.00     0.114 C 
BRANCH  46  47
HETATM   47  C   UNK     0     -14.219   5.349  -5.501  0.00  0.00     0.139 C 
HETATM   48  O   UNK     0     -15.317   5.654  -5.989  0.00  0.00    -0.650 OA
BRANCH  47  49
HETATM   49  O   UNK     0     -13.052   5.695  -6.134  0.00  0.00    -0.776 OA
HETATM   50  H   UNK     0     -12.257   6.101  -5.627  0.00  0.00     0.167 HD
ENDBRANCH  47  49
ENDBRANCH  46  47
ENDBRANCH  45  46
ENDBRANCH  11  45
BRANCH  18  51
HETATM   51  C   UNK     0     -10.118   0.258  -9.761  0.00  0.00     0.051 C 
BRANCH  51  52
HETATM   52  C   UNK     0     -10.141   0.576 -11.248  0.00  0.00     0.114 C 
BRANCH  52  53
HETATM   53  C   UNK     0      -9.818   1.992 -11.512  0.00  0.00     0.139 C 
HETATM   54  O   UNK     0     -10.723   2.792 -11.798  0.00  0.00    -0.650 OA
BRANCH  53  55
HETATM   55  O   UNK     0      -8.513   2.416 -11.443  0.00  0.00    -0.776 OA
HETATM   56  H   UNK     0      -7.764   1.931 -11.007  0.00  0.00     0.167 HD
ENDBRANCH  53  55
ENDBRANCH  52  53
ENDBRANCH  51  52
ENDBRANCH  18  51
TORSDOF 16
ENDMDL
MODEL 15
REMARK VINA RESULT:      -8.9      2.419      7.099
REMARK  16 active torsions:
REMARK  status: ('A' for Active; 'I' for Inactive)
REMARK    1  A    between atoms: C_6  and  C_7 
REMARK    2  A    between atoms: C_7  and  C_8 
REMARK    3  A    between atoms: C_8  and  C_9 
REMARK    4  A    between atoms: C_9  and  O_11 
REMARK    5  A    between atoms: C_16  and  C_17 
REMARK    6  A    between atoms: C_17  and  C_18 
REMARK    7  A    between atoms: C_18  and  C_19 
REMARK    8  A    between atoms: C_19  and  O_21 
REMARK    9  A    between atoms: C_28  and  C_29 
REMARK   10  A    between atoms: C_29  and  C_30 
REMARK   11  A    between atoms: C_30  and  C_31 
REMARK   12  A    between atoms: C_31  and  O_33 
REMARK   13  A    between atoms: C_42  and  C_43 
REMARK   14  A    between atoms: C_43  and  C_44 
REMARK   15  A    between atoms: C_44  and  C_45 
REMARK   16  A    between atoms: C_45  and  O_47 
ROOT
HETATM    1  C   UNK     0     -11.419  -0.682 -13.551  0.00  0.00     0.051 C 
HETATM    2  C   UNK     0     -12.243  -0.235 -12.361  0.00  0.00    -0.031 A 
HETATM    3  C   UNK     0     -13.605  -0.357 -12.138  0.00  0.00     0.021 A 
HETATM    4  N   UNK     0     -13.910   0.214 -10.949  0.00  0.00    -0.361 N 
HETATM    5  C   UNK     0     -12.771   0.690 -10.405  0.00  0.00     0.022 A 
HETATM    6  C   UNK     0     -11.709   0.428 -11.263  0.00  0.00    -0.027 A 
HETATM    7  C   UNK     0     -12.546   1.322  -9.067  0.00  0.00     0.115 C 
HETATM    8  C   UNK     0     -13.253   0.683  -7.884  0.00  0.00     0.021 A 
HETATM    9  N   UNK     0     -13.503  -0.617  -7.662  0.00  0.00    -0.361 N 
HETATM   10  C   UNK     0     -14.235  -0.715  -6.532  0.00  0.00     0.022 A 
HETATM   11  C   UNK     0     -14.454   0.555  -6.007  0.00  0.00    -0.027 A 
HETATM   12  C   UNK     0     -13.838   1.440  -6.853  0.00  0.00    -0.031 A 
HETATM   13  C   UNK     0     -13.808   2.942  -6.677  0.00  0.00     0.051 C 
HETATM   14  C   UNK     0     -14.800  -2.000  -5.933  0.00  0.00     0.115 C 
HETATM   15  C   UNK     0     -15.770  -2.731  -6.848  0.00  0.00     0.021 A 
HETATM   16  N   UNK     0     -15.535  -3.202  -8.086  0.00  0.00    -0.361 N 
HETATM   17  C   UNK     0     -16.662  -3.717  -8.581  0.00  0.00     0.022 A 
HETATM   18  C   UNK     0     -17.679  -3.583  -7.615  0.00  0.00    -0.027 A 
HETATM   19  C   UNK     0     -17.107  -2.965  -6.533  0.00  0.00    -0.031 A 
HETATM   20  C   UNK     0     -17.850  -2.660  -5.245  0.00  0.00     0.051 C 
HETATM   21  C   UNK     0     -16.947  -4.302  -9.946  0.00  0.00     0.115 C 
HETATM   22  C   UNK     0     -16.218  -3.705 -11.127  0.00  0.00     0.022 A 
HETATM   23  N   UNK     0     -15.951  -2.415 -11.372  0.00  0.00    -0.361 N 
HETATM   24  C   UNK     0     -15.155  -2.347 -12.458  0.00  0.00     0.021 A 
HETATM   25  C   UNK     0     -14.913  -3.622 -12.931  0.00  0.00    -0.031 A 
HETATM   26  C   UNK     0     -14.115  -4.054 -14.144  0.00  0.00     0.051 C 
HETATM   27  C   UNK     0     -15.583  -4.509 -12.095  0.00  0.00    -0.027 A 
HETATM   28  C   UNK     0     -14.516  -1.110 -13.066  0.00  0.00     0.115 C 
HETATM   29  H   UNK     0     -14.935   0.313 -10.520  0.00  0.00     0.165 HD
HETATM   30  H   UNK     0     -13.122  -1.471  -8.274  0.00  0.00     0.165 HD
HETATM   31  H   UNK     0     -14.541  -3.215  -8.605  0.00  0.00     0.165 HD
HETATM   32  H   UNK     0     -16.357  -1.538 -10.805  0.00  0.00     0.165 HD
ENDROOT
BRANCH   6  33
HETATM   33  C   UNK     0     -10.244   0.758 -11.123  0.00  0.00     0.051 C 
BRANCH  33  34
HETATM   34  C   UNK     0     -10.008   2.237 -11.317  0.00  0.00     0.114 C 
BRANCH  34  35
HETATM   35  C   UNK     0      -8.969   2.656 -10.333  0.00  0.00     0.139 C 
HETATM   36  O   UNK     0      -9.289   3.358  -9.329  0.00  0.00    -0.650 OA
BRANCH  35  37
HETATM   37  O   UNK     0      -7.631   2.305 -10.461  0.00  0.00    -0.776 OA
HETATM   38  H   UNK     0      -7.305   1.696 -11.194  0.00  0.00     0.167 HD
ENDBRANCH  35  37
ENDBRANCH  34  35
ENDBRANCH  33  34
ENDBRANCH   6  33
BRANCH  27  39
HETATM   39  C   UNK     0     -15.614  -5.978 -12.330  0.00  0.00     0.051 C 
BRANCH  39  40
HETATM   40  C   UNK     0     -14.694  -6.822 -11.569  0.00  0.00     0.114 C 
BRANCH  40  41
HETATM   41  C   UNK     0     -14.799  -6.981 -10.136  0.00  0.00     0.139 C 
HETATM   42  O   UNK     0     -15.633  -7.716  -9.590  0.00  0.00    -0.650 OA
BRANCH  41  43
HETATM   43  O   UNK     0     -13.906  -6.261  -9.293  0.00  0.00    -0.776 OA
HETATM   44  H   UNK     0     -14.247  -5.355  -8.998  0.00  0.00     0.167 HD
ENDBRANCH  41  43
ENDBRANCH  40  41
ENDBRANCH  39  40
ENDBRANCH  27  39
BRANCH  11  45
HETATM   45  C   UNK     0     -15.205   0.942  -4.761  0.00  0.00     0.051 C 
BRANCH  45  46
HETATM   46  C   UNK     0     -14.384   0.913  -3.524  0.00  0.00     0.114 C 
BRANCH  46  47
HETATM   47  C   UNK     0     -14.264   2.318  -3.040  0.00  0.00     0.139 C 
HETATM   48  O   UNK     0     -13.133   2.778  -2.831  0.00  0.00    -0.650 OA
BRANCH  47  49
HETATM   49  O   UNK     0     -15.381   3.086  -2.828  0.00  0.00    -0.776 OA
HETATM   50  H   UNK     0     -15.592   3.501  -1.913  0.00  0.00     0.167 HD
ENDBRANCH  47  49
ENDBRANCH  46  47
ENDBRANCH  45  46
ENDBRANCH  11  45
BRANCH  18  51
HETATM   51  C   UNK     0     -19.112  -4.038  -7.709  0.00  0.00     0.051 C 
BRANCH  51  52
HETATM   52  C   UNK     0     -19.163  -5.419  -7.073  0.00  0.00     0.114 C 
BRANCH  52  53
HETATM   53  C   UNK     0     -18.942  -6.490  -8.064  0.00  0.00     0.139 C 
HETATM   54  O   UNK     0     -19.502  -6.437  -9.171  0.00  0.00    -0.650 OA
BRANCH  53  55
HETATM   55  O   UNK     0     -18.117  -7.543  -7.754  0.00  0.00    -0.776 OA
HETATM   56  H   UNK     0     -18.347  -8.314  -7.172  0.00  0.00     0.167 HD
ENDBRANCH  53  55
ENDBRANCH  52  53
ENDBRANCH  51  52
ENDBRANCH  18  51
TORSDOF 16
ENDMDL
MODEL 16
REMARK VINA RESULT:      -8.8      2.393      7.933
REMARK  16 active torsions:
REMARK  status: ('A' for Active; 'I' for Inactive)
REMARK    1  A    between atoms: C_6  and  C_7 
REMARK    2  A    between atoms: C_7  and  C_8 
REMARK    3  A    between atoms: C_8  and  C_9 
REMARK    4  A    between atoms: C_9  and  O_11 
REMARK    5  A    between atoms: C_16  and  C_17 
REMARK    6  A    between atoms: C_17  and  C_18 
REMARK    7  A    between atoms: C_18  and  C_19 
REMARK    8  A    between atoms: C_19  and  O_21 
REMARK    9  A    between atoms: C_28  and  C_29 
REMARK   10  A    between atoms: C_29  and  C_30 
REMARK   11  A    between atoms: C_30  and  C_31 
REMARK   12  A    between atoms: C_31  and  O_33 
REMARK   13  A    between atoms: C_42  and  C_43 
REMARK   14  A    between atoms: C_43  and  C_44 
REMARK   15  A    between atoms: C_44  and  C_45 
REMARK   16  A    between atoms: C_45  and  O_47 
ROOT
HETATM    1  C   UNK     0      -9.037   2.999 -11.961  0.00  0.00     0.051 C 
HETATM    2  C   UNK     0      -9.724   1.649 -11.986  0.00  0.00    -0.031 A 
HETATM    3  C   UNK     0     -10.087   0.827 -10.931  0.00  0.00     0.021 A 
HETATM    4  N   UNK     0     -10.649  -0.302 -11.424  0.00  0.00    -0.361 N 
HETATM    5  C   UNK     0     -10.660  -0.214 -12.770  0.00  0.00     0.022 A 
HETATM    6  C   UNK     0     -10.086   0.993 -13.156  0.00  0.00    -0.027 A 
HETATM    7  C   UNK     0     -11.251  -1.146 -13.781  0.00  0.00     0.115 C 
HETATM    8  C   UNK     0     -12.622  -1.717 -13.461  0.00  0.00     0.021 A 
HETATM    9  N   UNK     0     -13.649  -1.125 -12.833  0.00  0.00    -0.361 N 
HETATM   10  C   UNK     0     -14.633  -2.036 -12.687  0.00  0.00     0.022 A 
HETATM   11  C   UNK     0     -14.233  -3.247 -13.245  0.00  0.00    -0.027 A 
HETATM   12  C   UNK     0     -12.967  -3.053 -13.735  0.00  0.00    -0.031 A 
HETATM   13  C   UNK     0     -12.131  -4.099 -14.437  0.00  0.00     0.051 C 
HETATM   14  C   UNK     0     -15.964  -1.820 -11.971  0.00  0.00     0.115 C 
HETATM   15  C   UNK     0     -15.821  -1.463 -10.500  0.00  0.00     0.021 A 
HETATM   16  N   UNK     0     -15.162  -0.416  -9.969  0.00  0.00    -0.361 N 
HETATM   17  C   UNK     0     -15.213  -0.496  -8.638  0.00  0.00     0.022 A 
HETATM   18  C   UNK     0     -15.947  -1.646  -8.284  0.00  0.00    -0.027 A 
HETATM   19  C   UNK     0     -16.323  -2.242  -9.460  0.00  0.00    -0.031 A 
HETATM   20  C   UNK     0     -17.169  -3.500  -9.535  0.00  0.00     0.051 C 
HETATM   21  C   UNK     0     -14.576   0.384  -7.586  0.00  0.00     0.115 C 
HETATM   22  C   UNK     0     -13.232   0.994  -7.908  0.00  0.00     0.022 A 
HETATM   23  N   UNK     0     -12.193   0.429  -8.537  0.00  0.00    -0.361 N 
HETATM   24  C   UNK     0     -11.255   1.376  -8.740  0.00  0.00     0.021 A 
HETATM   25  C   UNK     0     -11.697   2.578  -8.222  0.00  0.00    -0.031 A 
HETATM   26  C   UNK     0     -10.985   3.915  -8.172  0.00  0.00     0.051 C 
HETATM   27  C   UNK     0     -12.960   2.359  -7.683  0.00  0.00    -0.027 A 
HETATM   28  C   UNK     0      -9.943   1.239  -9.493  0.00  0.00     0.115 C 
HETATM   29  H   UNK     0     -10.998  -1.171 -10.819  0.00  0.00     0.165 HD
HETATM   30  H   UNK     0     -13.701  -0.049 -12.535  0.00  0.00     0.165 HD
HETATM   31  H   UNK     0     -14.693   0.423 -10.545  0.00  0.00     0.165 HD
HETATM   32  H   UNK     0     -12.093  -0.655  -8.804  0.00  0.00     0.165 HD
ENDROOT
BRANCH   6  33
HETATM   33  C   UNK     0      -9.857   1.562 -14.533  0.00  0.00     0.051 C 
BRANCH  33  34
HETATM   34  C   UNK     0     -10.909   1.069 -15.498  0.00  0.00     0.114 C 
BRANCH  34  35
HETATM   35  C   UNK     0     -10.411   1.338 -16.877  0.00  0.00     0.139 C 
HETATM   36  O   UNK     0     -10.724   2.412 -17.469  0.00  0.00    -0.650 OA
BRANCH  35  37
HETATM   37  O   UNK     0      -9.595   0.449 -17.567  0.00  0.00    -0.776 OA
HETATM   38  H   UNK     0      -9.148  -0.330 -17.110  0.00  0.00     0.167 HD
ENDBRANCH  35  37
ENDBRANCH  34  35
ENDBRANCH  33  34
ENDBRANCH   6  33
BRANCH  27  39
HETATM   39  C   UNK     0     -13.730   3.412  -6.967  0.00  0.00     0.051 C 
BRANCH  39  40
HETATM   40  C   UNK     0     -13.859   3.310  -5.514  0.00  0.00     0.114 C 
BRANCH  40  41
HETATM   41  C   UNK     0     -12.951   3.979  -4.610  0.00  0.00     0.139 C 
HETATM   42  O   UNK     0     -12.729   3.594  -3.454  0.00  0.00    -0.650 OA
BRANCH  41  43
HETATM   43  O   UNK     0     -12.266   5.145  -5.057  0.00  0.00    -0.776 OA
HETATM   44  H   UNK     0     -11.500   5.435  -4.460  0.00  0.00     0.167 HD
ENDBRANCH  41  43
ENDBRANCH  40  41
ENDBRANCH  39  40
ENDBRANCH  27  39
BRANCH  11  45
HETATM   45  C   UNK     0     -14.994  -4.543 -13.328  0.00  0.00     0.051 C 
BRANCH  45  46
HETATM   46  C   UNK     0     -14.957  -5.348 -12.081  0.00  0.00     0.114 C 
BRANCH  46  47
HETATM   47  C   UNK     0     -14.528  -6.726 -12.457  0.00  0.00     0.139 C 
HETATM   48  O   UNK     0     -14.298  -6.969 -13.650  0.00  0.00    -0.650 OA
BRANCH  47  49
HETATM   49  O   UNK     0     -14.391  -7.704 -11.505  0.00  0.00    -0.776 OA
HETATM   50  H   UNK     0     -13.513  -8.220 -11.376  0.00  0.00     0.167 HD
ENDBRANCH  47  49
ENDBRANCH  46  47
ENDBRANCH  45  46
ENDBRANCH  11  45
BRANCH  18  51
HETATM   51  C   UNK     0     -16.289  -2.138  -6.902  0.00  0.00     0.051 C 
BRANCH  51  52
HETATM   52  C   UNK     0     -15.205  -3.135  -6.524  0.00  0.00     0.114 C 
BRANCH  52  53
HETATM   53  C   UNK     0     -14.169  -2.523  -5.668  0.00  0.00     0.139 C 
HETATM   54  O   UNK     0     -14.482  -2.019  -4.578  0.00  0.00    -0.650 OA
BRANCH  53  55
HETATM   55  O   UNK     0     -12.861  -2.512  -6.087  0.00  0.00    -0.776 OA
HETATM   56  H   UNK     0     -12.347  -1.713  -6.375  0.00  0.00     0.167 HD
ENDBRANCH  53  55
ENDBRANCH  52  53
ENDBRANCH  51  52
ENDBRANCH  18  51
TORSDOF 16
ENDMDL
MODEL 17
REMARK VINA RESULT:      -8.8      2.587      7.560
REMARK  16 active torsions:
REMARK  status: ('A' for Active; 'I' for Inactive)
REMARK    1  A    between atoms: C_6  and  C_7 
REMARK    2  A    between atoms: C_7  and  C_8 
REMARK    3  A    between atoms: C_8  and  C_9 
REMARK    4  A    between atoms: C_9  and  O_11 
REMARK    5  A    between atoms: C_16  and  C_17 
REMARK    6  A    between atoms: C_17  and  C_18 
REMARK    7  A    between atoms: C_18  and  C_19 
REMARK    8  A    between atoms: C_19  and  O_21 
REMARK    9  A    between atoms: C_28  and  C_29 
REMARK   10  A    between atoms: C_29  and  C_30 
REMARK   11  A    between atoms: C_30  and  C_31 
REMARK   12  A    between atoms: C_31  and  O_33 
REMARK   13  A    between atoms: C_42  and  C_43 
REMARK   14  A    between atoms: C_43  and  C_44 
REMARK   15  A    between atoms: C_44  and  C_45 
REMARK   16  A    between atoms: C_45  and  O_47 
ROOT
HETATM    1  C   UNK     0     -11.811   0.091 -13.163  0.00  0.00     0.051 C 
HETATM    2  C   UNK     0     -12.651   0.195 -11.907  0.00  0.00    -0.031 A 
HETATM    3  C   UNK     0     -13.995  -0.090 -11.721  0.00  0.00     0.021 A 
HETATM    4  N   UNK     0     -14.329   0.179 -10.437  0.00  0.00    -0.361 N 
HETATM    5  C   UNK     0     -13.226   0.620  -9.798  0.00  0.00     0.022 A 
HETATM    6  C   UNK     0     -12.159   0.645 -10.689  0.00  0.00    -0.027 A 
HETATM    7  C   UNK     0     -13.036   0.962  -8.353  0.00  0.00     0.115 C 
HETATM    8  C   UNK     0     -13.667   0.021  -7.341  0.00  0.00     0.021 A 
HETATM    9  N   UNK     0     -13.802  -1.312  -7.410  0.00  0.00    -0.361 N 
HETATM   10  C   UNK     0     -14.505  -1.718  -6.332  0.00  0.00     0.022 A 
HETATM   11  C   UNK     0     -14.823  -0.618  -5.542  0.00  0.00    -0.027 A 
HETATM   12  C   UNK     0     -14.298   0.482  -6.172  0.00  0.00    -0.031 A 
HETATM   13  C   UNK     0     -14.394   1.905  -5.671  0.00  0.00     0.051 C 
HETATM   14  C   UNK     0     -14.950  -3.147  -6.032  0.00  0.00     0.115 C 
HETATM   15  C   UNK     0     -15.868  -3.741  -7.087  0.00  0.00     0.021 A 
HETATM   16  N   UNK     0     -15.613  -3.908  -8.398  0.00  0.00    -0.361 N 
HETATM   17  C   UNK     0     -16.700  -4.397  -8.998  0.00  0.00     0.022 A 
HETATM   18  C   UNK     0     -17.710  -4.566  -8.030  0.00  0.00    -0.027 A 
HETATM   19  C   UNK     0     -17.175  -4.153  -6.837  0.00  0.00    -0.031 A 
HETATM   20  C   UNK     0     -17.921  -4.202  -5.516  0.00  0.00     0.051 C 
HETATM   21  C   UNK     0     -16.955  -4.692 -10.459  0.00  0.00     0.115 C 
HETATM   22  C   UNK     0     -16.297  -3.791 -11.477  0.00  0.00     0.022 A 
HETATM   23  N   UNK     0     -16.145  -2.461 -11.433  0.00  0.00    -0.361 N 
HETATM   24  C   UNK     0     -15.375  -2.088 -12.475  0.00  0.00     0.021 A 
HETATM   25  C   UNK     0     -15.033  -3.204 -13.215  0.00  0.00    -0.031 A 
HETATM   26  C   UNK     0     -14.220  -3.289 -14.490  0.00  0.00     0.051 C 
HETATM   27  C   UNK     0     -15.611  -4.306 -12.596  0.00  0.00    -0.027 A 
HETATM   28  C   UNK     0     -14.853  -0.698 -12.794  0.00  0.00     0.115 C 
HETATM   29  H   UNK     0     -15.352   0.092 -10.001  0.00  0.00     0.165 HD
HETATM   30  H   UNK     0     -13.359  -1.976  -8.193  0.00  0.00     0.165 HD
HETATM   31  H   UNK     0     -14.629  -3.722  -8.904  0.00  0.00     0.165 HD
HETATM   32  H   UNK     0     -16.615  -1.767 -10.689  0.00  0.00     0.165 HD
ENDROOT
BRANCH   6  33
HETATM   33  C   UNK     0     -10.726   1.062 -10.474  0.00  0.00     0.051 C 
BRANCH  33  34
HETATM   34  C   UNK     0     -10.469   2.425 -11.072  0.00  0.00     0.114 C 
BRANCH  34  35
HETATM   35  C   UNK     0      -9.036   2.471 -11.480  0.00  0.00     0.139 C 
HETATM   36  O   UNK     0      -8.725   2.625 -12.697  0.00  0.00    -0.650 OA
BRANCH  35  37
HETATM   37  O   UNK     0      -7.993   2.353 -10.570  0.00  0.00    -0.776 OA
HETATM   38  H   UNK     0      -7.351   1.578 -10.590  0.00  0.00     0.167 HD
ENDBRANCH  35  37
ENDBRANCH  34  35
ENDBRANCH  33  34
ENDBRANCH   6  33
BRANCH  27  39
HETATM   39  C   UNK     0     -15.521  -5.685 -13.147  0.00  0.00     0.051 C 
BRANCH  39  40
HETATM   40  C   UNK     0     -14.452  -6.558 -12.663  0.00  0.00     0.114 C 
BRANCH  40  41
HETATM   41  C   UNK     0     -13.324  -6.925 -13.488  0.00  0.00     0.139 C 
HETATM   42  O   UNK     0     -12.354  -6.181 -13.690  0.00  0.00    -0.650 OA
BRANCH  41  43
HETATM   43  O   UNK     0     -13.310  -8.206 -14.110  0.00  0.00    -0.776 OA
HETATM   44  H   UNK     0     -13.818  -8.252 -14.984  0.00  0.00     0.167 HD
ENDBRANCH  41  43
ENDBRANCH  40  41
ENDBRANCH  39  40
ENDBRANCH  27  39
BRANCH  11  45
HETATM   45  C   UNK     0     -15.586  -0.578  -4.245  0.00  0.00     0.051 C 
BRANCH  45  46
HETATM   46  C   UNK     0     -17.052  -0.755  -4.398  0.00  0.00     0.114 C 
BRANCH  46  47
HETATM   47  C   UNK     0     -17.713   0.217  -3.481  0.00  0.00     0.139 C 
HETATM   48  O   UNK     0     -18.921   0.446  -3.631  0.00  0.00    -0.650 OA
BRANCH  47  49
HETATM   49  O   UNK     0     -16.999   0.847  -2.493  0.00  0.00    -0.776 OA
HETATM   50  H   UNK     0     -17.440   1.502  -1.835  0.00  0.00     0.167 HD
ENDBRANCH  47  49
ENDBRANCH  46  47
ENDBRANCH  45  46
ENDBRANCH  11  45
BRANCH  18  51
HETATM   51  C   UNK     0     -19.100  -5.112  -8.226  0.00  0.00     0.051 C 
BRANCH  51  52
HETATM   52  C   UNK     0     -18.942  -6.607  -8.459  0.00  0.00     0.114 C 
BRANCH  52  53
HETATM   53  C   UNK     0     -18.643  -7.330  -7.208  0.00  0.00     0.139 C 
HETATM   54  O   UNK     0     -19.444  -7.289  -6.260  0.00  0.00    -0.650 OA
BRANCH  53  55
HETATM   55  O   UNK     0     -17.474  -8.043  -7.098  0.00  0.00    -0.776 OA
HETATM   56  H   UNK     0     -16.619  -7.708  -6.721  0.00  0.00     0.167 HD
ENDBRANCH  53  55
ENDBRANCH  52  53
ENDBRANCH  51  52
ENDBRANCH  18  51
TORSDOF 16
ENDMDL
MODEL 18
REMARK VINA RESULT:      -8.7     30.740     33.224
REMARK  16 active torsions:
REMARK  status: ('A' for Active; 'I' for Inactive)
REMARK    1  A    between atoms: C_6  and  C_7 
REMARK    2  A    between atoms: C_7  and  C_8 
REMARK    3  A    between atoms: C_8  and  C_9 
REMARK    4  A    between atoms: C_9  and  O_11 
REMARK    5  A    between atoms: C_16  and  C_17 
REMARK    6  A    between atoms: C_17  and  C_18 
REMARK    7  A    between atoms: C_18  and  C_19 
REMARK    8  A    between atoms: C_19  and  O_21 
REMARK    9  A    between atoms: C_28  and  C_29 
REMARK   10  A    between atoms: C_29  and  C_30 
REMARK   11  A    between atoms: C_30  and  C_31 
REMARK   12  A    between atoms: C_31  and  O_33 
REMARK   13  A    between atoms: C_42  and  C_43 
REMARK   14  A    between atoms: C_43  and  C_44 
REMARK   15  A    between atoms: C_44  and  C_45 
REMARK   16  A    between atoms: C_45  and  O_47 
ROOT
HETATM    1  C   UNK     0      11.309  -1.698  16.306  0.00  0.00     0.051 C 
HETATM    2  C   UNK     0      12.047  -1.776  14.985  0.00  0.00    -0.031 A 
HETATM    3  C   UNK     0      12.467  -2.891  14.277  0.00  0.00     0.021 A 
HETATM    4  N   UNK     0      13.117  -2.486  13.160  0.00  0.00    -0.361 N 
HETATM    5  C   UNK     0      13.113  -1.137  13.137  0.00  0.00     0.022 A 
HETATM    6  C   UNK     0      12.455  -0.660  14.265  0.00  0.00    -0.027 A 
HETATM    7  C   UNK     0      13.614  -0.202  12.081  0.00  0.00     0.115 C 
HETATM    8  C   UNK     0      13.306  -0.572  10.641  0.00  0.00     0.021 A 
HETATM    9  N   UNK     0      12.208  -1.164  10.146  0.00  0.00    -0.361 N 
HETATM   10  C   UNK     0      12.407  -1.383   8.829  0.00  0.00     0.022 A 
HETATM   11  C   UNK     0      13.664  -0.912   8.464  0.00  0.00    -0.027 A 
HETATM   12  C   UNK     0      14.236  -0.399   9.600  0.00  0.00    -0.031 A 
HETATM   13  C   UNK     0      15.608   0.231   9.680  0.00  0.00     0.051 C 
HETATM   14  C   UNK     0      11.446  -2.091   7.878  0.00  0.00     0.115 C 
HETATM   15  C   UNK     0      11.147  -3.531   8.264  0.00  0.00     0.021 A 
HETATM   16  N   UNK     0      10.616  -3.980   9.416  0.00  0.00    -0.361 N 
HETATM   17  C   UNK     0      10.580  -5.314   9.393  0.00  0.00     0.022 A 
HETATM   18  C   UNK     0      11.103  -5.755   8.161  0.00  0.00    -0.027 A 
HETATM   19  C   UNK     0      11.454  -4.629   7.463  0.00  0.00    -0.031 A 
HETATM   20  C   UNK     0      12.030  -4.652   6.059  0.00  0.00     0.051 C 
HETATM   21  C   UNK     0      10.146  -6.293  10.459  0.00  0.00     0.115 C 
HETATM   22  C   UNK     0      10.406  -5.917  11.899  0.00  0.00     0.022 A 
HETATM   23  N   UNK     0      11.488  -5.324  12.419  0.00  0.00    -0.361 N 
HETATM   24  C   UNK     0      11.237  -5.045  13.714  0.00  0.00     0.021 A 
HETATM   25  C   UNK     0       9.966  -5.478  14.038  0.00  0.00    -0.031 A 
HETATM   26  C   UNK     0       9.252  -5.424  15.373  0.00  0.00     0.051 C 
HETATM   27  C   UNK     0       9.414  -6.040  12.893  0.00  0.00    -0.027 A 
HETATM   28  C   UNK     0      12.124  -4.294  14.692  0.00  0.00     0.115 C 
HETATM   29  H   UNK     0      13.609  -3.155  12.417  0.00  0.00     0.165 HD
HETATM   30  H   UNK     0      11.270  -1.382  10.714  0.00  0.00     0.165 HD
HETATM   31  H   UNK     0      10.214  -3.341  10.245  0.00  0.00     0.165 HD
HETATM   32  H   UNK     0      12.457  -5.136  11.888  0.00  0.00     0.165 HD
ENDROOT
BRANCH   6  33
HETATM   33  C   UNK     0      12.188   0.756  14.707  0.00  0.00     0.051 C 
BRANCH  33  34
HETATM   34  C   UNK     0      11.705   1.596  13.549  0.00  0.00     0.114 C 
BRANCH  34  35
HETATM   35  C   UNK     0      10.335   1.123  13.196  0.00  0.00     0.139 C 
HETATM   36  O   UNK     0      10.113   0.599  12.066  0.00  0.00    -0.650 OA
BRANCH  35  37
HETATM   37  O   UNK     0       9.258   1.228  14.068  0.00  0.00    -0.776 OA
HETATM   38  H   UNK     0       8.413   0.696  13.940  0.00  0.00     0.167 HD
ENDBRANCH  35  37
ENDBRANCH  34  35
ENDBRANCH  33  34
ENDBRANCH   6  33
BRANCH  27  39
HETATM   39  C   UNK     0       8.072  -6.683  12.871  0.00  0.00     0.051 C 
BRANCH  39  40
HETATM   40  C   UNK     0       7.999  -8.129  12.662  0.00  0.00     0.114 C 
BRANCH  40  41
HETATM   41  C   UNK     0       7.010  -8.733  11.798  0.00  0.00     0.139 C 
HETATM   42  O   UNK     0       5.808  -8.812  12.086  0.00  0.00    -0.650 OA
BRANCH  41  43
HETATM   43  O   UNK     0       7.421  -9.272  10.546  0.00  0.00    -0.776 OA
HETATM   44  H   UNK     0       7.838 -10.194  10.604  0.00  0.00     0.167 HD
ENDBRANCH  41  43
ENDBRANCH  40  41
ENDBRANCH  39  40
ENDBRANCH  27  39
BRANCH  11  45
HETATM   45  C   UNK     0      14.319  -0.929   7.109  0.00  0.00     0.051 C 
BRANCH  45  46
HETATM   46  C   UNK     0      13.813   0.111   6.177  0.00  0.00     0.114 C 
BRANCH  46  47
HETATM   47  C   UNK     0      13.427  -0.578   4.913  0.00  0.00     0.139 C 
HETATM   48  O   UNK     0      14.325  -1.008   4.175  0.00  0.00    -0.650 OA
BRANCH  47  49
HETATM   49  O   UNK     0      12.108  -0.733   4.571  0.00  0.00    -0.776 OA
HETATM   50  H   UNK     0      11.389  -0.973   5.264  0.00  0.00     0.167 HD
ENDBRANCH  47  49
ENDBRANCH  46  47
ENDBRANCH  45  46
ENDBRANCH  11  45
BRANCH  18  51
HETATM   51  C   UNK     0      11.242  -7.173   7.669  0.00  0.00     0.051 C 
BRANCH  51  52
HETATM   52  C   UNK     0       9.933  -7.511   6.970  0.00  0.00     0.114 C 
BRANCH  52  53
HETATM   53  C   UNK     0       9.131  -8.478   7.744  0.00  0.00     0.139 C 
HETATM   54  O   UNK     0       9.694  -9.301   8.484  0.00  0.00    -0.650 OA
BRANCH  53  55
HETATM   55  O   UNK     0       7.762  -8.464   7.638  0.00  0.00    -0.776 OA
HETATM   56  H   UNK     0       7.181  -7.660   7.674  0.00  0.00     0.167 HD
ENDBRANCH  53  55
ENDBRANCH  52  53
ENDBRANCH  51  52
ENDBRANCH  18  51
TORSDOF 16
ENDMDL
MODEL 19
REMARK VINA RESULT:      -8.7      2.477      8.675
REMARK  16 active torsions:
REMARK  status: ('A' for Active; 'I' for Inactive)
REMARK    1  A    between atoms: C_6  and  C_7 
REMARK    2  A    between atoms: C_7  and  C_8 
REMARK    3  A    between atoms: C_8  and  C_9 
REMARK    4  A    between atoms: C_9  and  O_11 
REMARK    5  A    between atoms: C_16  and  C_17 
REMARK    6  A    between atoms: C_17  and  C_18 
REMARK    7  A    between atoms: C_18  and  C_19 
REMARK    8  A    between atoms: C_19  and  O_21 
REMARK    9  A    between atoms: C_28  and  C_29 
REMARK   10  A    between atoms: C_29  and  C_30 
REMARK   11  A    between atoms: C_30  and  C_31 
REMARK   12  A    between atoms: C_31  and  O_33 
REMARK   13  A    between atoms: C_42  and  C_43 
REMARK   14  A    between atoms: C_43  and  C_44 
REMARK   15  A    between atoms: C_44  and  C_45 
REMARK   16  A    between atoms: C_45  and  O_47 
ROOT
HETATM    1  C   UNK     0     -10.323   1.763 -12.862  0.00  0.00     0.051 C 
HETATM    2  C   UNK     0     -11.287   0.686 -12.409  0.00  0.00    -0.031 A 
HETATM    3  C   UNK     0     -11.436   0.108 -11.157  0.00  0.00     0.021 A 
HETATM    4  N   UNK     0     -12.403  -0.838 -11.220  0.00  0.00    -0.361 N 
HETATM    5  C   UNK     0     -12.880  -0.870 -12.482  0.00  0.00     0.022 A 
HETATM    6  C   UNK     0     -12.202   0.069 -13.253  0.00  0.00    -0.027 A 
HETATM    7  C   UNK     0     -14.012  -1.666 -13.052  0.00  0.00     0.115 C 
HETATM    8  C   UNK     0     -15.269  -1.766 -12.206  0.00  0.00     0.021 A 
HETATM    9  N   UNK     0     -15.813  -0.838 -11.404  0.00  0.00    -0.361 N 
HETATM   10  C   UNK     0     -16.873  -1.394 -10.779  0.00  0.00     0.022 A 
HETATM   11  C   UNK     0     -17.021  -2.713 -11.197  0.00  0.00    -0.027 A 
HETATM   12  C   UNK     0     -16.013  -2.954 -12.096  0.00  0.00    -0.031 A 
HETATM   13  C   UNK     0     -15.781  -4.262 -12.819  0.00  0.00     0.051 C 
HETATM   14  C   UNK     0     -17.752  -0.724  -9.727  0.00  0.00     0.115 C 
HETATM   15  C   UNK     0     -17.000  -0.298  -8.477  0.00  0.00     0.021 A 
HETATM   16  N   UNK     0     -15.954   0.545  -8.394  0.00  0.00    -0.361 N 
HETATM   17  C   UNK     0     -15.535   0.602  -7.128  0.00  0.00     0.022 A 
HETATM   18  C   UNK     0     -16.355  -0.237  -6.346  0.00  0.00    -0.027 A 
HETATM   19  C   UNK     0     -17.269  -0.793  -7.202  0.00  0.00    -0.031 A 
HETATM   20  C   UNK     0     -18.371  -1.739  -6.762  0.00  0.00     0.051 C 
HETATM   21  C   UNK     0     -14.361   1.338  -6.524  0.00  0.00     0.115 C 
HETATM   22  C   UNK     0     -13.119   1.484  -7.372  0.00  0.00     0.022 A 
HETATM   23  N   UNK     0     -12.557   0.578  -8.183  0.00  0.00    -0.361 N 
HETATM   24  C   UNK     0     -11.551   1.177  -8.853  0.00  0.00     0.021 A 
HETATM   25  C   UNK     0     -11.458   2.497  -8.457  0.00  0.00    -0.031 A 
HETATM   26  C   UNK     0     -10.466   3.555  -8.893  0.00  0.00     0.051 C 
HETATM   27  C   UNK     0     -12.450   2.717  -7.509  0.00  0.00    -0.027 A 
HETATM   28  C   UNK     0     -10.682   0.583  -9.948  0.00  0.00     0.115 C 
HETATM   29  H   UNK     0     -12.715  -1.504 -10.383  0.00  0.00     0.165 HD
HETATM   30  H   UNK     0     -15.482   0.225 -11.315  0.00  0.00     0.165 HD
HETATM   31  H   UNK     0     -15.531   1.149  -9.238  0.00  0.00     0.165 HD
HETATM   32  H   UNK     0     -12.837  -0.504  -8.258  0.00  0.00     0.165 HD
ENDROOT
BRANCH   6  33
HETATM   33  C   UNK     0     -12.353   0.418 -14.712  0.00  0.00     0.051 C 
BRANCH  33  34
HETATM   34  C   UNK     0     -11.287  -0.262 -15.538  0.00  0.00     0.114 C 
BRANCH  34  35
HETATM   35  C   UNK     0     -10.660   0.779 -16.402  0.00  0.00     0.139 C 
HETATM   36  O   UNK     0     -11.030   1.986 -16.315  0.00  0.00    -0.650 OA
BRANCH  35  37
HETATM   37  O   UNK     0      -9.660   0.486 -17.321  0.00  0.00    -0.776 OA
HETATM   38  H   UNK     0      -9.091   1.205 -17.739  0.00  0.00     0.167 HD
ENDBRANCH  35  37
ENDBRANCH  34  35
ENDBRANCH  33  34
ENDBRANCH   6  33
BRANCH  27  39
HETATM   39  C   UNK     0     -12.617   4.013  -6.795  0.00  0.00     0.051 C 
BRANCH  39  40
HETATM   40  C   UNK     0     -13.668   4.924  -7.247  0.00  0.00     0.114 C 
BRANCH  40  41
HETATM   41  C   UNK     0     -14.808   5.254  -6.422  0.00  0.00     0.139 C 
HETATM   42  O   UNK     0     -15.879   5.681  -6.875  0.00  0.00    -0.650 OA
BRANCH  41  43
HETATM   43  O   UNK     0     -14.713   5.087  -5.012  0.00  0.00    -0.776 OA
HETATM   44  H   UNK     0     -14.422   5.917  -4.510  0.00  0.00     0.167 HD
ENDBRANCH  41  43
ENDBRANCH  40  41
ENDBRANCH  39  40
ENDBRANCH  27  39
BRANCH  11  45
HETATM   45  C   UNK     0     -18.059  -3.722 -10.784  0.00  0.00     0.051 C 
BRANCH  45  46
HETATM   46  C   UNK     0     -17.809  -4.339  -9.456  0.00  0.00     0.114 C 
BRANCH  46  47
HETATM   47  C   UNK     0     -17.890  -5.817  -9.635  0.00  0.00     0.139 C 
HETATM   48  O   UNK     0     -18.891  -6.411  -9.210  0.00  0.00    -0.650 OA
BRANCH  47  49
HETATM   49  O   UNK     0     -16.878  -6.507 -10.254  0.00  0.00    -0.776 OA
HETATM   50  H   UNK     0     -15.908  -6.468  -9.919  0.00  0.00     0.167 HD
ENDBRANCH  47  49
ENDBRANCH  46  47
ENDBRANCH  45  46
ENDBRANCH  11  45
BRANCH  18  51
HETATM   51  C   UNK     0     -16.284  -0.477  -4.860  0.00  0.00     0.051 C 
BRANCH  51  52
HETATM   52  C   UNK     0     -15.590  -1.819  -4.679  0.00  0.00     0.114 C 
BRANCH  52  53
HETATM   53  C   UNK     0     -14.135  -1.664  -4.487  0.00  0.00     0.139 C 
HETATM   54  O   UNK     0     -13.349  -2.032  -5.374  0.00  0.00    -0.650 OA
BRANCH  53  55
HETATM   55  O   UNK     0     -13.658  -1.115  -3.322  0.00  0.00    -0.776 OA
HETATM   56  H   UNK     0     -13.588  -0.145  -3.119  0.00  0.00     0.167 HD
ENDBRANCH  53  55
ENDBRANCH  52  53
ENDBRANCH  51  52
ENDBRANCH  18  51
TORSDOF 16
ENDMDL
MODEL 20
REMARK VINA RESULT:      -8.6      3.539      8.761
REMARK  16 active torsions:
REMARK  status: ('A' for Active; 'I' for Inactive)
REMARK    1  A    between atoms: C_6  and  C_7 
REMARK    2  A    between atoms: C_7  and  C_8 
REMARK    3  A    between atoms: C_8  and  C_9 
REMARK    4  A    between atoms: C_9  and  O_11 
REMARK    5  A    between atoms: C_16  and  C_17 
REMARK    6  A    between atoms: C_17  and  C_18 
REMARK    7  A    between atoms: C_18  and  C_19 
REMARK    8  A    between atoms: C_19  and  O_21 
REMARK    9  A    between atoms: C_28  and  C_29 
REMARK   10  A    between atoms: C_29  and  C_30 
REMARK   11  A    between atoms: C_30  and  C_31 
REMARK   12  A    between atoms: C_31  and  O_33 
REMARK   13  A    between atoms: C_42  and  C_43 
REMARK   14  A    between atoms: C_43  and  C_44 
REMARK   15  A    between atoms: C_44  and  C_45 
REMARK   16  A    between atoms: C_45  and  O_47 
ROOT
HETATM    1  C   UNK     0     -16.758  -8.173  -9.957  0.00  0.00     0.051 C 
HETATM    2  C   UNK     0     -16.359  -7.095  -8.969  0.00  0.00    -0.031 A 
HETATM    3  C   UNK     0     -15.216  -6.312  -8.936  0.00  0.00     0.021 A 
HETATM    4  N   UNK     0     -15.269  -5.500  -7.853  0.00  0.00    -0.361 N 
HETATM    5  C   UNK     0     -16.426  -5.743  -7.201  0.00  0.00     0.022 A 
HETATM    6  C   UNK     0     -17.130  -6.737  -7.871  0.00  0.00    -0.027 A 
HETATM    7  C   UNK     0     -17.007  -5.054  -6.006  0.00  0.00     0.115 C 
HETATM    8  C   UNK     0     -16.905  -3.539  -5.976  0.00  0.00     0.021 A 
HETATM    9  N   UNK     0     -16.986  -2.675  -6.999  0.00  0.00    -0.361 N 
HETATM   10  C   UNK     0     -16.746  -1.435  -6.521  0.00  0.00     0.022 A 
HETATM   11  C   UNK     0     -16.513  -1.502  -5.151  0.00  0.00    -0.027 A 
HETATM   12  C   UNK     0     -16.612  -2.824  -4.801  0.00  0.00    -0.031 A 
HETATM   13  C   UNK     0     -16.438  -3.374  -3.403  0.00  0.00     0.051 C 
HETATM   14  C   UNK     0     -16.675  -0.151  -7.343  0.00  0.00     0.115 C 
HETATM   15  C   UNK     0     -15.583  -0.157  -8.401  0.00  0.00     0.021 A 
HETATM   16  N   UNK     0     -15.430  -1.025  -9.418  0.00  0.00    -0.361 N 
HETATM   17  C   UNK     0     -14.309  -0.731 -10.081  0.00  0.00     0.022 A 
HETATM   18  C   UNK     0     -13.708   0.388  -9.472  0.00  0.00    -0.027 A 
HETATM   19  C   UNK     0     -14.516   0.739  -8.422  0.00  0.00    -0.031 A 
HETATM   20  C   UNK     0     -14.253   1.926  -7.514  0.00  0.00     0.051 C 
HETATM   21  C   UNK     0     -13.655  -1.438 -11.246  0.00  0.00     0.115 C 
HETATM   22  C   UNK     0     -13.786  -2.942 -11.312  0.00  0.00     0.022 A 
HETATM   23  N   UNK     0     -13.714  -3.826 -10.309  0.00  0.00    -0.361 N 
HETATM   24  C   UNK     0     -14.033  -5.043 -10.794  0.00  0.00     0.021 A 
HETATM   25  C   UNK     0     -14.307  -4.941 -12.144  0.00  0.00    -0.031 A 
HETATM   26  C   UNK     0     -14.671  -6.034 -13.128  0.00  0.00     0.051 C 
HETATM   27  C   UNK     0     -14.156  -3.606 -12.499  0.00  0.00    -0.027 A 
HETATM   28  C   UNK     0     -14.178  -6.343 -10.021  0.00  0.00     0.115 C 
HETATM   29  H   UNK     0     -14.472  -4.790  -7.535  0.00  0.00     0.165 HD
HETATM   30  H   UNK     0     -17.262  -2.930  -8.052  0.00  0.00     0.165 HD
HETATM   31  H   UNK     0     -16.152  -1.833  -9.704  0.00  0.00     0.165 HD
HETATM   32  H   UNK     0     -13.394  -3.607  -9.257  0.00  0.00     0.165 HD
ENDROOT
BRANCH   6  33
HETATM   33  C   UNK     0     -18.463  -7.366  -7.550  0.00  0.00     0.051 C 
BRANCH  33  34
HETATM   34  C   UNK     0     -18.288  -8.545  -6.622  0.00  0.00     0.114 C 
BRANCH  34  35
HETATM   35  C   UNK     0     -18.880  -8.169  -5.306  0.00  0.00     0.139 C 
HETATM   36  O   UNK     0     -18.299  -8.494  -4.230  0.00  0.00    -0.650 OA
BRANCH  35  37
HETATM   37  O   UNK     0     -20.068  -7.457  -5.195  0.00  0.00    -0.776 OA
HETATM   38  H   UNK     0     -20.198  -6.561  -5.636  0.00  0.00     0.167 HD
ENDBRANCH  35  37
ENDBRANCH  34  35
ENDBRANCH  33  34
ENDBRANCH   6  33
BRANCH  27  39
HETATM   39  C   UNK     0     -14.301  -3.117 -13.898  0.00  0.00     0.051 C 
BRANCH  39  40
HETATM   40  C   UNK     0     -13.104  -2.649 -14.596  0.00  0.00     0.114 C 
BRANCH  40  41
HETATM   41  C   UNK     0     -13.161  -1.640 -15.631  0.00  0.00     0.139 C 
HETATM   42  O   UNK     0     -12.200  -0.925 -15.941  0.00  0.00    -0.650 OA
BRANCH  41  43
HETATM   43  O   UNK     0     -14.381  -1.446 -16.340  0.00  0.00    -0.776 OA
HETATM   44  H   UNK     0     -14.851  -0.573 -16.134  0.00  0.00     0.167 HD
ENDBRANCH  41  43
ENDBRANCH  40  41
ENDBRANCH  39  40
ENDBRANCH  27  39
BRANCH  11  45
HETATM   45  C   UNK     0     -16.212  -0.382  -4.191  0.00  0.00     0.051 C 
BRANCH  45  46
HETATM   46  C   UNK     0     -14.783   0.025  -4.165  0.00  0.00     0.114 C 
BRANCH  46  47
HETATM   47  C   UNK     0     -14.696   1.278  -3.362  0.00  0.00     0.139 C 
HETATM   48  O   UNK     0     -13.584   1.650  -2.963  0.00  0.00    -0.650 OA
BRANCH  47  49
HETATM   49  O   UNK     0     -15.823   2.005  -3.069  0.00  0.00    -0.776 OA
HETATM   50  H   UNK     0     -16.767   1.629  -3.215  0.00  0.00     0.167 HD
ENDBRANCH  47  49
ENDBRANCH  46  47
ENDBRANCH  45  46
ENDBRANCH  11  45
BRANCH  18  51
HETATM   51  C   UNK     0     -12.443   1.098  -9.881  0.00  0.00     0.051 C 
BRANCH  51  52
HETATM   52  C   UNK     0     -11.295   0.309  -9.270  0.00  0.00     0.114 C 
BRANCH  52  53
HETATM   53  C   UNK     0     -10.008   1.018  -9.405  0.00  0.00     0.139 C 
HETATM   54  O   UNK     0      -9.824   2.092  -8.810  0.00  0.00    -0.650 OA
BRANCH  53  55
HETATM   55  O   UNK     0      -9.018   0.485 -10.194  0.00  0.00    -0.776 OA
HETATM   56  H   UNK     0      -9.042   0.400 -11.183  0.00  0.00     0.167 HD
ENDBRANCH  53  55
ENDBRANCH  52  53
ENDBRANCH  51  52
ENDBRANCH  18  51
TORSDOF 16
ENDMDL
