MODEL 1
REMARK VINA RESULT:      -9.9      0.000      0.000
REMARK  16 active torsions:
REMARK  status: ('A' for Active; 'I' for Inactive)
REMARK    1  A    between atoms: C_6  and  C_7 
REMARK    2  A    between atoms: C_7  and  C_8 
REMARK    3  A    between atoms: C_8  and  C_9 
REMARK    4  A    between atoms: C_9  and  O_11 
REMARK    5  A    between atoms: C_16  and  C_17 
REMARK    6  A    between atoms: C_17  and  C_18 
REMARK    7  A    between atoms: C_18  and  C_19 
REMARK    8  A    between atoms: C_19  and  O_21 
REMARK    9  A    between atoms: C_28  and  C_29 
REMARK   10  A    between atoms: C_29  and  C_30 
REMARK   11  A    between atoms: C_30  and  C_31 
REMARK   12  A    between atoms: C_31  and  O_33 
REMARK   13  A    between atoms: C_42  and  C_43 
REMARK   14  A    between atoms: C_43  and  C_44 
REMARK   15  A    between atoms: C_44  and  C_45 
REMARK   16  A    between atoms: C_45  and  O_47 
ROOT
HETATM    1  C   UNK     0      11.848  17.697 -10.117  0.00  0.00     0.051 C 
HETATM    2  C   UNK     0      12.401  19.046  -9.705  0.00  0.00    -0.031 A 
HETATM    3  C   UNK     0      11.728  20.228  -9.439  0.00  0.00     0.021 A 
HETATM    4  N   UNK     0      12.631  21.191  -9.137  0.00  0.00    -0.361 N 
HETATM    5  C   UNK     0      13.864  20.646  -9.196  0.00  0.00     0.022 A 
HETATM    6  C   UNK     0      13.756  19.306  -9.551  0.00  0.00    -0.027 A 
HETATM    7  C   UNK     0      15.190  21.253  -8.861  0.00  0.00     0.115 C 
HETATM    8  C   UNK     0      15.251  22.109  -7.608  0.00  0.00     0.021 A 
HETATM    9  N   UNK     0      14.597  21.940  -6.448  0.00  0.00    -0.361 N 
HETATM   10  C   UNK     0      14.884  22.990  -5.649  0.00  0.00     0.022 A 
HETATM   11  C   UNK     0      15.753  23.854  -6.309  0.00  0.00    -0.027 A 
HETATM   12  C   UNK     0      15.989  23.304  -7.543  0.00  0.00    -0.031 A 
HETATM   13  C   UNK     0      16.884  23.898  -8.608  0.00  0.00     0.051 C 
HETATM   14  C   UNK     0      14.310  23.247  -4.258  0.00  0.00     0.115 C 
HETATM   15  C   UNK     0      12.798  23.403  -4.235  0.00  0.00     0.021 A 
HETATM   16  N   UNK     0      11.875  22.514  -4.644  0.00  0.00    -0.361 N 
HETATM   17  C   UNK     0      10.661  23.055  -4.525  0.00  0.00     0.022 A 
HETATM   18  C   UNK     0      10.799  24.357  -4.003  0.00  0.00    -0.027 A 
HETATM   19  C   UNK     0      12.143  24.562  -3.825  0.00  0.00    -0.031 A 
HETATM   20  C   UNK     0      12.732  25.834  -3.243  0.00  0.00     0.051 C 
HETATM   21  C   UNK     0       9.307  22.503  -4.912  0.00  0.00     0.115 C 
HETATM   22  C   UNK     0       9.240  21.615  -6.131  0.00  0.00     0.022 A 
HETATM   23  N   UNK     0       9.882  21.756  -7.298  0.00  0.00    -0.361 N 
HETATM   24  C   UNK     0       9.644  20.661  -8.048  0.00  0.00     0.021 A 
HETATM   25  C   UNK     0       8.820  19.798  -7.351  0.00  0.00    -0.031 A 
HETATM   26  C   UNK     0       8.246  18.467  -7.789  0.00  0.00     0.051 C 
HETATM   27  C   UNK     0       8.547  20.387  -6.122  0.00  0.00    -0.027 A 
HETATM   28  C   UNK     0      10.229  20.321  -9.408  0.00  0.00     0.115 C 
HETATM   29  H   UNK     0      12.394  22.259  -8.923  0.00  0.00     0.165 HD
HETATM   30  H   UNK     0      13.973  21.056  -6.171  0.00  0.00     0.165 HD
HETATM   31  H   UNK     0      12.079  21.464  -4.981  0.00  0.00     0.165 HD
HETATM   32  H   UNK     0      10.475  22.651  -7.621  0.00  0.00     0.165 HD
ENDROOT
BRANCH   6  33
HETATM   33  C   UNK     0      14.830  18.267  -9.756  0.00  0.00     0.051 C 
BRANCH  33  34
HETATM   34  C   UNK     0      15.884  18.368  -8.679  0.00  0.00     0.114 C 
BRANCH  34  35
HETATM   35  C   UNK     0      17.215  18.281  -9.346  0.00  0.00     0.139 C 
HETATM   36  O   UNK     0      17.656  19.260 -10.016  0.00  0.00    -0.650 OA
BRANCH  35  37
HETATM   37  O   UNK     0      18.020  17.152  -9.267  0.00  0.00    -0.776 OA
HETATM   38  H   UNK     0      18.171  16.662  -8.400  0.00  0.00     0.167 HD
ENDBRANCH  35  37
ENDBRANCH  34  35
ENDBRANCH  33  34
ENDBRANCH   6  33
BRANCH  27  39
HETATM   39  C   UNK     0       7.628  19.782  -5.120  0.00  0.00     0.051 C 
BRANCH  39  40
HETATM   40  C   UNK     0       6.880  20.676  -4.236  0.00  0.00     0.114 C 
BRANCH  40  41
HETATM   41  C   UNK     0       5.465  20.918  -4.404  0.00  0.00     0.139 C 
HETATM   42  O   UNK     0       4.866  20.755  -5.475  0.00  0.00    -0.650 OA
BRANCH  41  43
HETATM   43  O   UNK     0       4.704  21.369  -3.288  0.00  0.00    -0.776 OA
HETATM   44  H   UNK     0       5.080  21.098  -2.387  0.00  0.00     0.167 HD
ENDBRANCH  41  43
ENDBRANCH  40  41
ENDBRANCH  39  40
ENDBRANCH  27  39
BRANCH  11  45
HETATM   45  C   UNK     0      16.352  25.144  -5.818  0.00  0.00     0.051 C 
BRANCH  45  46
HETATM   46  C   UNK     0      15.398  26.283  -5.791  0.00  0.00     0.114 C 
BRANCH  46  47
HETATM   47  C   UNK     0      15.557  27.021  -7.077  0.00  0.00     0.139 C 
HETATM   48  O   UNK     0      16.552  27.743  -7.227  0.00  0.00    -0.650 OA
BRANCH  47  49
HETATM   49  O   UNK     0      14.620  26.906  -8.073  0.00  0.00    -0.776 OA
HETATM   50  H   UNK     0      13.705  27.368  -8.017  0.00  0.00     0.167 HD
ENDBRANCH  47  49
ENDBRANCH  46  47
ENDBRANCH  45  46
ENDBRANCH  11  45
BRANCH  18  51
HETATM   51  C   UNK     0       9.709  25.343  -3.672  0.00  0.00     0.051 C 
BRANCH  51  52
HETATM   52  C   UNK     0       9.778  25.566  -2.169  0.00  0.00     0.114 C 
BRANCH  52  53
HETATM   53  C   UNK     0       9.598  26.987  -1.815  0.00  0.00     0.139 C 
HETATM   54  O   UNK     0       8.489  27.527  -1.954  0.00  0.00    -0.650 OA
BRANCH  53  55
HETATM   55  O   UNK     0      10.665  27.708  -1.335  0.00  0.00    -0.776 OA
HETATM   56  H   UNK     0      11.556  27.789  -1.766  0.00  0.00     0.167 HD
ENDBRANCH  53  55
ENDBRANCH  52  53
ENDBRANCH  51  52
ENDBRANCH  18  51
TORSDOF 16
ENDMDL
MODEL 2
REMARK VINA RESULT:      -9.5      2.014      6.925
REMARK  16 active torsions:
REMARK  status: ('A' for Active; 'I' for Inactive)
REMARK    1  A    between atoms: C_6  and  C_7 
REMARK    2  A    between atoms: C_7  and  C_8 
REMARK    3  A    between atoms: C_8  and  C_9 
REMARK    4  A    between atoms: C_9  and  O_11 
REMARK    5  A    between atoms: C_16  and  C_17 
REMARK    6  A    between atoms: C_17  and  C_18 
REMARK    7  A    between atoms: C_18  and  C_19 
REMARK    8  A    between atoms: C_19  and  O_21 
REMARK    9  A    between atoms: C_28  and  C_29 
REMARK   10  A    between atoms: C_29  and  C_30 
REMARK   11  A    between atoms: C_30  and  C_31 
REMARK   12  A    between atoms: C_31  and  O_33 
REMARK   13  A    between atoms: C_42  and  C_43 
REMARK   14  A    between atoms: C_43  and  C_44 
REMARK   15  A    between atoms: C_44  and  C_45 
REMARK   16  A    between atoms: C_45  and  O_47 
ROOT
HETATM    1  C   UNK     0      17.409  26.938  -6.128  0.00  0.00     0.051 C 
HETATM    2  C   UNK     0      16.872  25.537  -6.341  0.00  0.00    -0.031 A 
HETATM    3  C   UNK     0      16.226  24.697  -5.447  0.00  0.00     0.021 A 
HETATM    4  N   UNK     0      15.952  23.523  -6.064  0.00  0.00    -0.361 N 
HETATM    5  C   UNK     0      16.401  23.600  -7.334  0.00  0.00     0.022 A 
HETATM    6  C   UNK     0      16.985  24.846  -7.540  0.00  0.00    -0.027 A 
HETATM    7  C   UNK     0      16.264  22.616  -8.453  0.00  0.00     0.115 C 
HETATM    8  C   UNK     0      14.913  21.940  -8.606  0.00  0.00     0.021 A 
HETATM    9  N   UNK     0      13.692  22.455  -8.390  0.00  0.00    -0.361 N 
HETATM   10  C   UNK     0      12.786  21.469  -8.560  0.00  0.00     0.022 A 
HETATM   11  C   UNK     0      13.440  20.289  -8.904  0.00  0.00    -0.027 A 
HETATM   12  C   UNK     0      14.780  20.580  -8.935  0.00  0.00    -0.031 A 
HETATM   13  C   UNK     0      15.880  19.597  -9.269  0.00  0.00     0.051 C 
HETATM   14  C   UNK     0      11.278  21.585  -8.355  0.00  0.00     0.115 C 
HETATM   15  C   UNK     0      10.877  21.964  -6.938  0.00  0.00     0.021 A 
HETATM   16  N   UNK     0      11.234  23.064  -6.249  0.00  0.00    -0.361 N 
HETATM   17  C   UNK     0      10.732  22.990  -5.015  0.00  0.00     0.022 A 
HETATM   18  C   UNK     0      10.005  21.789  -4.896  0.00  0.00    -0.027 A 
HETATM   19  C   UNK     0      10.103  21.156  -6.108  0.00  0.00    -0.031 A 
HETATM   20  C   UNK     0       9.428  19.834  -6.426  0.00  0.00     0.051 C 
HETATM   21  C   UNK     0      10.901  23.927  -3.840  0.00  0.00     0.115 C 
HETATM   22  C   UNK     0      12.226  24.639  -3.700  0.00  0.00     0.022 A 
HETATM   23  N   UNK     0      13.456  24.153  -3.912  0.00  0.00    -0.361 N 
HETATM   24  C   UNK     0      14.336  25.170  -3.814  0.00  0.00     0.021 A 
HETATM   25  C   UNK     0      13.657  26.337  -3.521  0.00  0.00    -0.031 A 
HETATM   26  C   UNK     0      14.210  27.726  -3.276  0.00  0.00     0.051 C 
HETATM   27  C   UNK     0      12.305  26.023  -3.443  0.00  0.00    -0.027 A 
HETATM   28  C   UNK     0      15.834  25.131  -4.063  0.00  0.00     0.115 C 
HETATM   29  H   UNK     0      15.479  22.634  -5.586  0.00  0.00     0.165 HD
HETATM   30  H   UNK     0      13.463  23.525  -8.167  0.00  0.00     0.165 HD
HETATM   31  H   UNK     0      11.813  23.933  -6.657  0.00  0.00     0.165 HD
HETATM   32  H   UNK     0      13.720  23.078  -4.091  0.00  0.00     0.165 HD
ENDROOT
BRANCH   6  33
HETATM   33  C   UNK     0      17.635  25.420  -8.773  0.00  0.00     0.051 C 
BRANCH  33  34
HETATM   34  C   UNK     0      19.059  24.933  -8.903  0.00  0.00     0.114 C 
BRANCH  34  35
HETATM   35  C   UNK     0      19.128  24.075 -10.121  0.00  0.00     0.139 C 
HETATM   36  O   UNK     0      19.332  22.831 -10.013  0.00  0.00    -0.650 OA
BRANCH  35  37
HETATM   37  O   UNK     0      18.972  24.583 -11.405  0.00  0.00    -0.776 OA
HETATM   38  H   UNK     0      19.178  25.543 -11.628  0.00  0.00     0.167 HD
ENDBRANCH  35  37
ENDBRANCH  34  35
ENDBRANCH  33  34
ENDBRANCH   6  33
BRANCH  27  39
HETATM   39  C   UNK     0      11.262  27.017  -3.073  0.00  0.00     0.051 C 
BRANCH  39  40
HETATM   40  C   UNK     0      10.192  26.597  -2.169  0.00  0.00     0.114 C 
BRANCH  40  41
HETATM   41  C   UNK     0       8.832  27.066  -2.312  0.00  0.00     0.139 C 
HETATM   42  O   UNK     0       8.176  26.952  -3.357  0.00  0.00    -0.650 OA
BRANCH  41  43
HETATM   43  O   UNK     0       8.198  27.696  -1.204  0.00  0.00    -0.776 OA
HETATM   44  H   UNK     0       7.213  27.479  -1.106  0.00  0.00     0.167 HD
ENDBRANCH  41  43
ENDBRANCH  40  41
ENDBRANCH  39  40
ENDBRANCH  27  39
BRANCH  11  45
HETATM   45  C   UNK     0      12.850  18.937  -9.199  0.00  0.00     0.051 C 
BRANCH  45  46
HETATM   46  C   UNK     0      12.972  18.518 -10.619  0.00  0.00     0.114 C 
BRANCH  46  47
HETATM   47  C   UNK     0      13.680  17.206 -10.633  0.00  0.00     0.139 C 
HETATM   48  O   UNK     0      13.323  16.332  -9.832  0.00  0.00    -0.650 OA
BRANCH  47  49
HETATM   49  O   UNK     0      14.706  16.971 -11.513  0.00  0.00    -0.776 OA
HETATM   50  H   UNK     0      15.186  17.733 -12.008  0.00  0.00     0.167 HD
ENDBRANCH  47  49
ENDBRANCH  46  47
ENDBRANCH  45  46
ENDBRANCH  11  45
BRANCH  18  51
HETATM   51  C   UNK     0       9.242  21.283  -3.700  0.00  0.00     0.051 C 
BRANCH  51  52
HETATM   52  C   UNK     0       7.848  21.884  -3.799  0.00  0.00     0.114 C 
BRANCH  52  53
HETATM   53  C   UNK     0       6.816  20.850  -4.004  0.00  0.00     0.139 C 
HETATM   54  O   UNK     0       5.613  21.155  -3.965  0.00  0.00    -0.650 OA
BRANCH  53  55
HETATM   55  O   UNK     0       7.194  19.549  -4.235  0.00  0.00    -0.776 OA
HETATM   56  H   UNK     0       7.807  19.010  -3.670  0.00  0.00     0.167 HD
ENDBRANCH  53  55
ENDBRANCH  52  53
ENDBRANCH  51  52
ENDBRANCH  18  51
TORSDOF 16
ENDMDL
MODEL 3
REMARK VINA RESULT:      -9.1      1.531      7.210
REMARK  16 active torsions:
REMARK  status: ('A' for Active; 'I' for Inactive)
REMARK    1  A    between atoms: C_6  and  C_7 
REMARK    2  A    between atoms: C_7  and  C_8 
REMARK    3  A    between atoms: C_8  and  C_9 
REMARK    4  A    between atoms: C_9  and  O_11 
REMARK    5  A    between atoms: C_16  and  C_17 
REMARK    6  A    between atoms: C_17  and  C_18 
REMARK    7  A    between atoms: C_18  and  C_19 
REMARK    8  A    between atoms: C_19  and  O_21 
REMARK    9  A    between atoms: C_28  and  C_29 
REMARK   10  A    between atoms: C_29  and  C_30 
REMARK   11  A    between atoms: C_30  and  C_31 
REMARK   12  A    between atoms: C_31  and  O_33 
REMARK   13  A    between atoms: C_42  and  C_43 
REMARK   14  A    between atoms: C_43  and  C_44 
REMARK   15  A    between atoms: C_44  and  C_45 
REMARK   16  A    between atoms: C_45  and  O_47 
ROOT
HETATM    1  C   UNK     0      15.691  26.559  -4.646  0.00  0.00     0.051 C 
HETATM    2  C   UNK     0      15.364  25.161  -5.130  0.00  0.00    -0.031 A 
HETATM    3  C   UNK     0      14.629  24.165  -4.508  0.00  0.00     0.021 A 
HETATM    4  N   UNK     0      14.622  23.064  -5.297  0.00  0.00    -0.361 N 
HETATM    5  C   UNK     0      15.329  23.340  -6.412  0.00  0.00     0.022 A 
HETATM    6  C   UNK     0      15.810  24.643  -6.339  0.00  0.00    -0.027 A 
HETATM    7  C   UNK     0      15.547  22.503  -7.633  0.00  0.00     0.115 C 
HETATM    8  C   UNK     0      14.341  21.751  -8.167  0.00  0.00     0.021 A 
HETATM    9  N   UNK     0      13.056  22.137  -8.186  0.00  0.00    -0.361 N 
HETATM   10  C   UNK     0      12.318  21.115  -8.668  0.00  0.00     0.022 A 
HETATM   11  C   UNK     0      13.152  20.044  -8.978  0.00  0.00    -0.027 A 
HETATM   12  C   UNK     0      14.428  20.438  -8.665  0.00  0.00    -0.031 A 
HETATM   13  C   UNK     0      15.671  19.595  -8.841  0.00  0.00     0.051 C 
HETATM   14  C   UNK     0      10.798  21.086  -8.806  0.00  0.00     0.115 C 
HETATM   15  C   UNK     0      10.057  21.244  -7.488  0.00  0.00     0.021 A 
HETATM   16  N   UNK     0      10.136  22.269  -6.619  0.00  0.00    -0.361 N 
HETATM   17  C   UNK     0       9.385  21.997  -5.550  0.00  0.00     0.022 A 
HETATM   18  C   UNK     0       8.780  20.738  -5.736  0.00  0.00    -0.027 A 
HETATM   19  C   UNK     0       9.208  20.278  -6.954  0.00  0.00    -0.031 A 
HETATM   20  C   UNK     0       8.762  18.961  -7.562  0.00  0.00     0.051 C 
HETATM   21  C   UNK     0       9.191  22.782  -4.273  0.00  0.00     0.115 C 
HETATM   22  C   UNK     0      10.371  23.570  -3.753  0.00  0.00     0.022 A 
HETATM   23  N   UNK     0      11.661  23.213  -3.726  0.00  0.00    -0.361 N 
HETATM   24  C   UNK     0      12.386  24.273  -3.315  0.00  0.00     0.021 A 
HETATM   25  C   UNK     0      11.541  25.336  -3.062  0.00  0.00    -0.031 A 
HETATM   26  C   UNK     0      11.877  26.719  -2.545  0.00  0.00     0.051 C 
HETATM   27  C   UNK     0      10.245  24.910  -3.334  0.00  0.00    -0.027 A 
HETATM   28  C   UNK     0      13.897  24.382  -3.214  0.00  0.00     0.115 C 
HETATM   29  H   UNK     0      14.151  22.086  -5.042  0.00  0.00     0.165 HD
HETATM   30  H   UNK     0      12.672  23.148  -7.905  0.00  0.00     0.165 HD
HETATM   31  H   UNK     0      10.696  23.227  -6.784  0.00  0.00     0.165 HD
HETATM   32  H   UNK     0      12.069  22.194  -3.956  0.00  0.00     0.165 HD
ENDROOT
BRANCH   6  33
HETATM   33  C   UNK     0      16.653  25.422  -7.317  0.00  0.00     0.051 C 
BRANCH  33  34
HETATM   34  C   UNK     0      18.080  25.524  -6.832  0.00  0.00     0.114 C 
BRANCH  34  35
HETATM   35  C   UNK     0      18.440  26.971  -6.805  0.00  0.00     0.139 C 
HETATM   36  O   UNK     0      17.633  27.837  -7.253  0.00  0.00    -0.650 OA
BRANCH  35  37
HETATM   37  O   UNK     0      19.648  27.433  -6.298  0.00  0.00    -0.776 OA
HETATM   38  H   UNK     0      20.110  26.983  -5.524  0.00  0.00     0.167 HD
ENDBRANCH  35  37
ENDBRANCH  34  35
ENDBRANCH  33  34
ENDBRANCH   6  33
BRANCH  27  39
HETATM   39  C   UNK     0       9.048  25.764  -3.109  0.00  0.00     0.051 C 
BRANCH  39  40
HETATM   40  C   UNK     0       9.226  27.044  -2.423  0.00  0.00     0.114 C 
BRANCH  40  41
HETATM   41  C   UNK     0       8.154  28.005  -2.294  0.00  0.00     0.139 C 
HETATM   42  O   UNK     0       8.180  28.955  -1.500  0.00  0.00    -0.650 OA
BRANCH  41  43
HETATM   43  O   UNK     0       7.000  27.868  -3.116  0.00  0.00    -0.776 OA
HETATM   44  H   UNK     0       6.173  27.546  -2.627  0.00  0.00     0.167 HD
ENDBRANCH  41  43
ENDBRANCH  40  41
ENDBRANCH  39  40
ENDBRANCH  27  39
BRANCH  11  45
HETATM   45  C   UNK     0      12.786  18.700  -9.548  0.00  0.00     0.051 C 
BRANCH  45  46
HETATM   46  C   UNK     0      13.361  18.435 -10.892  0.00  0.00     0.114 C 
BRANCH  46  47
HETATM   47  C   UNK     0      14.031  17.104 -10.831  0.00  0.00     0.139 C 
HETATM   48  O   UNK     0      13.377  16.129 -10.434  0.00  0.00    -0.650 OA
BRANCH  47  49
HETATM   49  O   UNK     0      15.343  16.960 -11.204  0.00  0.00    -0.776 OA
HETATM   50  H   UNK     0      16.117  17.136 -10.554  0.00  0.00     0.167 HD
ENDBRANCH  47  49
ENDBRANCH  46  47
ENDBRANCH  45  46
ENDBRANCH  11  45
BRANCH  18  51
HETATM   51  C   UNK     0       7.828  20.023  -4.812  0.00  0.00     0.051 C 
BRANCH  51  52
HETATM   52  C   UNK     0       6.527  19.860  -5.583  0.00  0.00     0.114 C 
BRANCH  52  53
HETATM   53  C   UNK     0       5.451  20.705  -5.030  0.00  0.00     0.139 C 
HETATM   54  O   UNK     0       4.419  20.907  -5.690  0.00  0.00    -0.650 OA
BRANCH  53  55
HETATM   55  O   UNK     0       5.601  21.268  -3.786  0.00  0.00    -0.776 OA
HETATM   56  H   UNK     0       5.185  20.944  -2.945  0.00  0.00     0.167 HD
ENDBRANCH  53  55
ENDBRANCH  52  53
ENDBRANCH  51  52
ENDBRANCH  18  51
TORSDOF 16
ENDMDL
MODEL 4
REMARK VINA RESULT:      -8.9     27.440     31.206
REMARK  16 active torsions:
REMARK  status: ('A' for Active; 'I' for Inactive)
REMARK    1  A    between atoms: C_6  and  C_7 
REMARK    2  A    between atoms: C_7  and  C_8 
REMARK    3  A    between atoms: C_8  and  C_9 
REMARK    4  A    between atoms: C_9  and  O_11 
REMARK    5  A    between atoms: C_16  and  C_17 
REMARK    6  A    between atoms: C_17  and  C_18 
REMARK    7  A    between atoms: C_18  and  C_19 
REMARK    8  A    between atoms: C_19  and  O_21 
REMARK    9  A    between atoms: C_28  and  C_29 
REMARK   10  A    between atoms: C_29  and  C_30 
REMARK   11  A    between atoms: C_30  and  C_31 
REMARK   12  A    between atoms: C_31  and  O_33 
REMARK   13  A    between atoms: C_42  and  C_43 
REMARK   14  A    between atoms: C_43  and  C_44 
REMARK   15  A    between atoms: C_44  and  C_45 
REMARK   16  A    between atoms: C_45  and  O_47 
ROOT
HETATM    1  C   UNK     0      20.563   2.778  10.348  0.00  0.00     0.051 C 
HETATM    2  C   UNK     0      19.654   1.642   9.927  0.00  0.00    -0.031 A 
HETATM    3  C   UNK     0      19.468   1.082   8.673  0.00  0.00     0.021 A 
HETATM    4  N   UNK     0      18.532   0.108   8.759  0.00  0.00    -0.361 N 
HETATM    5  C   UNK     0      18.122   0.029  10.042  0.00  0.00     0.022 A 
HETATM    6  C   UNK     0      18.802   0.977  10.800  0.00  0.00    -0.027 A 
HETATM    7  C   UNK     0      17.176  -0.938  10.682  0.00  0.00     0.115 C 
HETATM    8  C   UNK     0      17.310  -2.394  10.273  0.00  0.00     0.021 A 
HETATM    9  N   UNK     0      18.425  -3.080   9.977  0.00  0.00    -0.361 N 
HETATM   10  C   UNK     0      18.062  -4.318   9.578  0.00  0.00     0.022 A 
HETATM   11  C   UNK     0      16.677  -4.435   9.627  0.00  0.00    -0.027 A 
HETATM   12  C   UNK     0      16.196  -3.227  10.064  0.00  0.00    -0.031 A 
HETATM   13  C   UNK     0      14.737  -2.891  10.276  0.00  0.00     0.051 C 
HETATM   14  C   UNK     0      19.000  -5.417   9.086  0.00  0.00     0.115 C 
HETATM   15  C   UNK     0      19.787  -5.043   7.840  0.00  0.00     0.021 A 
HETATM   16  N   UNK     0      20.632  -4.007   7.683  0.00  0.00    -0.361 N 
HETATM   17  C   UNK     0      21.066  -3.984   6.421  0.00  0.00     0.022 A 
HETATM   18  C   UNK     0      20.483  -5.061   5.725  0.00  0.00    -0.027 A 
HETATM   19  C   UNK     0      19.685  -5.718   6.625  0.00  0.00    -0.031 A 
HETATM   20  C   UNK     0      18.894  -6.971   6.296  0.00  0.00     0.051 C 
HETATM   21  C   UNK     0      21.965  -2.990   5.721  0.00  0.00     0.115 C 
HETATM   22  C   UNK     0      21.874  -1.544   6.148  0.00  0.00     0.022 A 
HETATM   23  N   UNK     0      20.778  -0.837   6.453  0.00  0.00    -0.361 N 
HETATM   24  C   UNK     0      21.167   0.366   6.922  0.00  0.00     0.021 A 
HETATM   25  C   UNK     0      22.547   0.439   6.909  0.00  0.00    -0.031 A 
HETATM   26  C   UNK     0      23.444   1.594   7.301  0.00  0.00     0.051 C 
HETATM   27  C   UNK     0      23.022  -0.772   6.418  0.00  0.00    -0.027 A 
HETATM   28  C   UNK     0      20.290   1.475   7.478  0.00  0.00     0.115 C 
HETATM   29  H   UNK     0      18.137  -0.490   7.905  0.00  0.00     0.165 HD
HETATM   30  H   UNK     0      19.473  -2.710  10.097  0.00  0.00     0.165 HD
HETATM   31  H   UNK     0      20.967  -3.306   8.490  0.00  0.00     0.165 HD
HETATM   32  H   UNK     0      19.717  -1.164   6.299  0.00  0.00     0.165 HD
ENDROOT
BRANCH   6  33
HETATM   33  C   UNK     0      18.703   1.296  12.270  0.00  0.00     0.051 C 
BRANCH  33  34
HETATM   34  C   UNK     0      19.701   0.486  13.062  0.00  0.00     0.114 C 
BRANCH  34  35
HETATM   35  C   UNK     0      20.667   1.443  13.675  0.00  0.00     0.139 C 
HETATM   36  O   UNK     0      21.848   1.075  13.939  0.00  0.00    -0.650 OA
BRANCH  35  37
HETATM   37  O   UNK     0      20.329   2.756  13.980  0.00  0.00    -0.776 OA
HETATM   38  H   UNK     0      19.425   3.004  14.350  0.00  0.00     0.167 HD
ENDBRANCH  35  37
ENDBRANCH  34  35
ENDBRANCH  33  34
ENDBRANCH   6  33
BRANCH  27  39
HETATM   39  C   UNK     0      24.467  -1.044   6.191  0.00  0.00     0.051 C 
BRANCH  39  40
HETATM   40  C   UNK     0      25.041  -0.703   4.889  0.00  0.00     0.114 C 
BRANCH  40  41
HETATM   41  C   UNK     0      24.422  -1.102   3.645  0.00  0.00     0.139 C 
HETATM   42  O   UNK     0      23.797  -0.324   2.912  0.00  0.00    -0.650 OA
BRANCH  41  43
HETATM   43  O   UNK     0      24.525  -2.459   3.226  0.00  0.00    -0.776 OA
HETATM   44  H   UNK     0      24.313  -3.138   3.948  0.00  0.00     0.167 HD
ENDBRANCH  41  43
ENDBRANCH  40  41
ENDBRANCH  39  40
ENDBRANCH  27  39
BRANCH  11  45
HETATM   45  C   UNK     0      15.819  -5.624   9.285  0.00  0.00     0.051 C 
BRANCH  45  46
HETATM   46  C   UNK     0      15.222  -6.300  10.465  0.00  0.00     0.114 C 
BRANCH  46  47
HETATM   47  C   UNK     0      16.322  -7.022  11.165  0.00  0.00     0.139 C 
HETATM   48  O   UNK     0      16.922  -7.920  10.558  0.00  0.00    -0.650 OA
BRANCH  47  49
HETATM   49  O   UNK     0      16.664  -6.701  12.455  0.00  0.00    -0.776 OA
HETATM   50  H   UNK     0      16.191  -5.952  12.974  0.00  0.00     0.167 HD
ENDBRANCH  47  49
ENDBRANCH  46  47
ENDBRANCH  45  46
ENDBRANCH  11  45
BRANCH  18  51
HETATM   51  C   UNK     0      20.692  -5.456   4.286  0.00  0.00     0.051 C 
BRANCH  51  52
HETATM   52  C   UNK     0      19.524  -4.868   3.509  0.00  0.00     0.114 C 
BRANCH  52  53
HETATM   53  C   UNK     0      18.849  -5.884   2.678  0.00  0.00     0.139 C 
HETATM   54  O   UNK     0      17.733  -5.647   2.190  0.00  0.00    -0.650 OA
BRANCH  53  55
HETATM   55  O   UNK     0      19.462  -7.093   2.451  0.00  0.00    -0.776 OA
HETATM   56  H   UNK     0      19.924  -7.366   1.616  0.00  0.00     0.167 HD
ENDBRANCH  53  55
ENDBRANCH  52  53
ENDBRANCH  51  52
ENDBRANCH  18  51
TORSDOF 16
ENDMDL
MODEL 5
REMARK VINA RESULT:      -8.4     28.150     31.202
REMARK  16 active torsions:
REMARK  status: ('A' for Active; 'I' for Inactive)
REMARK    1  A    between atoms: C_6  and  C_7 
REMARK    2  A    between atoms: C_7  and  C_8 
REMARK    3  A    between atoms: C_8  and  C_9 
REMARK    4  A    between atoms: C_9  and  O_11 
REMARK    5  A    between atoms: C_16  and  C_17 
REMARK    6  A    between atoms: C_17  and  C_18 
REMARK    7  A    between atoms: C_18  and  C_19 
REMARK    8  A    between atoms: C_19  and  O_21 
REMARK    9  A    between atoms: C_28  and  C_29 
REMARK   10  A    between atoms: C_29  and  C_30 
REMARK   11  A    between atoms: C_30  and  C_31 
REMARK   12  A    between atoms: C_31  and  O_33 
REMARK   13  A    between atoms: C_42  and  C_43 
REMARK   14  A    between atoms: C_43  and  C_44 
REMARK   15  A    between atoms: C_44  and  C_45 
REMARK   16  A    between atoms: C_45  and  O_47 
ROOT
HETATM    1  C   UNK     0      12.762  -6.164  10.428  0.00  0.00     0.051 C 
HETATM    2  C   UNK     0      13.945  -5.239  10.226  0.00  0.00    -0.031 A 
HETATM    3  C   UNK     0      15.262  -5.548   9.926  0.00  0.00     0.021 A 
HETATM    4  N   UNK     0      15.982  -4.402   9.869  0.00  0.00    -0.361 N 
HETATM    5  C   UNK     0      15.151  -3.369  10.119  0.00  0.00     0.022 A 
HETATM    6  C   UNK     0      13.869  -3.857  10.349  0.00  0.00    -0.027 A 
HETATM    7  C   UNK     0      15.424  -1.898  10.084  0.00  0.00     0.115 C 
HETATM    8  C   UNK     0      16.269  -1.389   8.930  0.00  0.00     0.021 A 
HETATM    9  N   UNK     0      16.295  -1.818   7.659  0.00  0.00    -0.361 N 
HETATM   10  C   UNK     0      17.263  -1.140   7.006  0.00  0.00     0.022 A 
HETATM   11  C   UNK     0      17.871  -0.242   7.879  0.00  0.00    -0.027 A 
HETATM   12  C   UNK     0      17.249  -0.393   9.092  0.00  0.00    -0.031 A 
HETATM   13  C   UNK     0      17.579   0.385  10.346  0.00  0.00     0.051 C 
HETATM   14  C   UNK     0      17.688  -1.347   5.555  0.00  0.00     0.115 C 
HETATM   15  C   UNK     0      18.209  -2.745   5.260  0.00  0.00     0.021 A 
HETATM   16  N   UNK     0      17.562  -3.914   5.423  0.00  0.00    -0.361 N 
HETATM   17  C   UNK     0      18.388  -4.918   5.118  0.00  0.00     0.022 A 
HETATM   18  C   UNK     0      19.629  -4.376   4.727  0.00  0.00    -0.027 A 
HETATM   19  C   UNK     0      19.503  -3.014   4.820  0.00  0.00    -0.031 A 
HETATM   20  C   UNK     0      20.606  -2.038   4.453  0.00  0.00     0.051 C 
HETATM   21  C   UNK     0      18.174  -6.412   5.203  0.00  0.00     0.115 C 
HETATM   22  C   UNK     0      17.298  -6.929   6.320  0.00  0.00     0.022 A 
HETATM   23  N   UNK     0      17.249  -6.517   7.594  0.00  0.00    -0.361 N 
HETATM   24  C   UNK     0      16.227  -7.151   8.204  0.00  0.00     0.021 A 
HETATM   25  C   UNK     0      15.610  -7.998   7.304  0.00  0.00    -0.031 A 
HETATM   26  C   UNK     0      14.448  -8.944   7.528  0.00  0.00     0.051 C 
HETATM   27  C   UNK     0      16.278  -7.874   6.091  0.00  0.00    -0.027 A 
HETATM   28  C   UNK     0      15.719  -6.946   9.621  0.00  0.00     0.115 C 
HETATM   29  H   UNK     0      17.081  -4.334   9.693  0.00  0.00     0.165 HD
HETATM   30  H   UNK     0      15.598  -2.565   7.206  0.00  0.00     0.165 HD
HETATM   31  H   UNK     0      16.486  -4.033   5.714  0.00  0.00     0.165 HD
HETATM   32  H   UNK     0      17.963  -5.807   8.086  0.00  0.00     0.165 HD
ENDROOT
BRANCH   6  33
HETATM   33  C   UNK     0      12.595  -3.120  10.675  0.00  0.00     0.051 C 
BRANCH  33  34
HETATM   34  C   UNK     0      11.523  -4.081  11.134  0.00  0.00     0.114 C 
BRANCH  34  35
HETATM   35  C   UNK     0      10.207  -3.503  10.740  0.00  0.00     0.139 C 
HETATM   36  O   UNK     0       9.157  -4.207  10.803  0.00  0.00    -0.650 OA
BRANCH  35  37
HETATM   37  O   UNK     0      10.066  -2.193  10.298  0.00  0.00    -0.776 OA
HETATM   38  H   UNK     0       9.435  -1.544  10.741  0.00  0.00     0.167 HD
ENDBRANCH  35  37
ENDBRANCH  34  35
ENDBRANCH  33  34
ENDBRANCH   6  33
BRANCH  27  39
HETATM   39  C   UNK     0      15.942  -8.690   4.893  0.00  0.00     0.051 C 
BRANCH  39  40
HETATM   40  C   UNK     0      15.069  -8.103   3.876  0.00  0.00     0.114 C 
BRANCH  40  41
HETATM   41  C   UNK     0      13.793  -8.686   3.526  0.00  0.00     0.139 C 
HETATM   42  O   UNK     0      13.508  -9.073   2.385  0.00  0.00    -0.650 OA
BRANCH  41  43
HETATM   43  O   UNK     0      12.799  -8.829   4.536  0.00  0.00    -0.776 OA
HETATM   44  H   UNK     0      12.677  -9.777   4.872  0.00  0.00     0.167 HD
ENDBRANCH  41  43
ENDBRANCH  40  41
ENDBRANCH  39  40
ENDBRANCH  27  39
BRANCH  11  45
HETATM   45  C   UNK     0      18.988   0.729   7.604  0.00  0.00     0.051 C 
BRANCH  45  46
HETATM   46  C   UNK     0      20.303   0.085   7.359  0.00  0.00     0.114 C 
BRANCH  46  47
HETATM   47  C   UNK     0      20.888  -0.246   8.690  0.00  0.00     0.139 C 
HETATM   48  O   UNK     0      21.269  -1.407   8.897  0.00  0.00    -0.650 OA
BRANCH  47  49
HETATM   49  O   UNK     0      21.000   0.711   9.666  0.00  0.00    -0.776 OA
HETATM   50  H   UNK     0      21.905   0.962  10.083  0.00  0.00     0.167 HD
ENDBRANCH  47  49
ENDBRANCH  46  47
ENDBRANCH  45  46
ENDBRANCH  11  45
BRANCH  18  51
HETATM   51  C   UNK     0      20.860  -5.115   4.271  0.00  0.00     0.051 C 
BRANCH  51  52
HETATM   52  C   UNK     0      21.949  -4.794   5.284  0.00  0.00     0.114 C 
BRANCH  52  53
HETATM   53  C   UNK     0      21.527  -5.109   6.662  0.00  0.00     0.139 C 
HETATM   54  O   UNK     0      21.207  -6.270   6.965  0.00  0.00    -0.650 OA
BRANCH  53  55
HETATM   55  O   UNK     0      21.489  -4.111   7.606  0.00  0.00    -0.776 OA
HETATM   56  H   UNK     0      22.177  -3.409   7.742  0.00  0.00     0.167 HD
ENDBRANCH  53  55
ENDBRANCH  52  53
ENDBRANCH  51  52
ENDBRANCH  18  51
TORSDOF 16
ENDMDL
MODEL 6
REMARK VINA RESULT:      -8.4     27.936     30.966
REMARK  16 active torsions:
REMARK  status: ('A' for Active; 'I' for Inactive)
REMARK    1  A    between atoms: C_6  and  C_7 
REMARK    2  A    between atoms: C_7  and  C_8 
REMARK    3  A    between atoms: C_8  and  C_9 
REMARK    4  A    between atoms: C_9  and  O_11 
REMARK    5  A    between atoms: C_16  and  C_17 
REMARK    6  A    between atoms: C_17  and  C_18 
REMARK    7  A    between atoms: C_18  and  C_19 
REMARK    8  A    between atoms: C_19  and  O_21 
REMARK    9  A    between atoms: C_28  and  C_29 
REMARK   10  A    between atoms: C_29  and  C_30 
REMARK   11  A    between atoms: C_30  and  C_31 
REMARK   12  A    between atoms: C_31  and  O_33 
REMARK   13  A    between atoms: C_42  and  C_43 
REMARK   14  A    between atoms: C_43  and  C_44 
REMARK   15  A    between atoms: C_44  and  C_45 
REMARK   16  A    between atoms: C_45  and  O_47 
ROOT
HETATM    1  C   UNK     0      13.004  -5.747  10.519  0.00  0.00     0.051 C 
HETATM    2  C   UNK     0      14.208  -4.881  10.211  0.00  0.00    -0.031 A 
HETATM    3  C   UNK     0      15.500  -5.257   9.878  0.00  0.00     0.021 A 
HETATM    4  N   UNK     0      16.256  -4.145   9.719  0.00  0.00    -0.361 N 
HETATM    5  C   UNK     0      15.472  -3.068   9.935  0.00  0.00     0.022 A 
HETATM    6  C   UNK     0      14.185  -3.493  10.247  0.00  0.00    -0.027 A 
HETATM    7  C   UNK     0      15.794  -1.613   9.794  0.00  0.00     0.115 C 
HETATM    8  C   UNK     0      16.607  -1.209   8.577  0.00  0.00     0.021 A 
HETATM    9  N   UNK     0      16.564  -1.719   7.336  0.00  0.00    -0.361 N 
HETATM   10  C   UNK     0      17.526  -1.119   6.603  0.00  0.00     0.022 A 
HETATM   11  C   UNK     0      18.200  -0.191   7.390  0.00  0.00    -0.027 A 
HETATM   12  C   UNK     0      17.626  -0.243   8.635  0.00  0.00    -0.031 A 
HETATM   13  C   UNK     0      18.035   0.601   9.822  0.00  0.00     0.051 C 
HETATM   14  C   UNK     0      17.881  -1.433   5.152  0.00  0.00     0.115 C 
HETATM   15  C   UNK     0      18.341  -2.864   4.927  0.00  0.00     0.021 A 
HETATM   16  N   UNK     0      17.662  -3.996   5.191  0.00  0.00    -0.361 N 
HETATM   17  C   UNK     0      18.439  -5.047   4.918  0.00  0.00     0.022 A 
HETATM   18  C   UNK     0      19.680  -4.577   4.444  0.00  0.00    -0.027 A 
HETATM   19  C   UNK     0      19.605  -3.209   4.453  0.00  0.00    -0.031 A 
HETATM   20  C   UNK     0      20.724  -2.299   3.980  0.00  0.00     0.051 C 
HETATM   21  C   UNK     0      18.177  -6.524   5.107  0.00  0.00     0.115 C 
HETATM   22  C   UNK     0      17.333  -6.937   6.290  0.00  0.00     0.022 A 
HETATM   23  N   UNK     0      17.351  -6.444   7.535  0.00  0.00    -0.361 N 
HETATM   24  C   UNK     0      16.335  -7.000   8.225  0.00  0.00     0.021 A 
HETATM   25  C   UNK     0      15.651  -7.879   7.408  0.00  0.00    -0.031 A 
HETATM   26  C   UNK     0      14.469  -8.765   7.738  0.00  0.00     0.051 C 
HETATM   27  C   UNK     0      16.272  -7.856   6.164  0.00  0.00    -0.027 A 
HETATM   28  C   UNK     0      15.896  -6.688   9.646  0.00  0.00     0.115 C 
HETATM   29  H   UNK     0      17.348  -4.129   9.495  0.00  0.00     0.165 HD
HETATM   30  H   UNK     0      15.823  -2.466   6.960  0.00  0.00     0.165 HD
HETATM   31  H   UNK     0      16.596  -4.057   5.532  0.00  0.00     0.165 HD
HETATM   32  H   UNK     0      18.110  -5.732   7.952  0.00  0.00     0.165 HD
ENDROOT
BRANCH   6  33
HETATM   33  C   UNK     0      12.952  -2.690  10.576  0.00  0.00     0.051 C 
BRANCH  33  34
HETATM   34  C   UNK     0      13.272  -1.215  10.630  0.00  0.00     0.114 C 
BRANCH  34  35
HETATM   35  C   UNK     0      13.211  -0.797  12.060  0.00  0.00     0.139 C 
HETATM   36  O   UNK     0      14.276  -0.557  12.700  0.00  0.00    -0.650 OA
BRANCH  35  37
HETATM   37  O   UNK     0      12.012  -0.650  12.747  0.00  0.00    -0.776 OA
HETATM   38  H   UNK     0      11.121  -0.827  12.312  0.00  0.00     0.167 HD
ENDBRANCH  35  37
ENDBRANCH  34  35
ENDBRANCH  33  34
ENDBRANCH   6  33
BRANCH  27  39
HETATM   39  C   UNK     0      15.857  -8.733   5.035  0.00  0.00     0.051 C 
BRANCH  39  40
HETATM   40  C   UNK     0      14.924  -8.195   4.045  0.00  0.00     0.114 C 
BRANCH  40  41
HETATM   41  C   UNK     0      13.494  -8.377   4.155  0.00  0.00     0.139 C 
HETATM   42  O   UNK     0      12.968  -9.257   4.851  0.00  0.00    -0.650 OA
BRANCH  41  43
HETATM   43  O   UNK     0      12.629  -7.507   3.432  0.00  0.00    -0.776 OA
HETATM   44  H   UNK     0      11.736  -7.339   3.879  0.00  0.00     0.167 HD
ENDBRANCH  41  43
ENDBRANCH  40  41
ENDBRANCH  39  40
ENDBRANCH  27  39
BRANCH  11  45
HETATM   45  C   UNK     0      19.337   0.718   7.009  0.00  0.00     0.051 C 
BRANCH  45  46
HETATM   46  C   UNK     0      20.633   0.019   6.813  0.00  0.00     0.114 C 
BRANCH  46  47
HETATM   47  C   UNK     0      21.196  -0.256   8.166  0.00  0.00     0.139 C 
HETATM   48  O   UNK     0      21.530   0.704   8.875  0.00  0.00    -0.650 OA
BRANCH  47  49
HETATM   49  O   UNK     0      21.342  -1.543   8.618  0.00  0.00    -0.776 OA
HETATM   50  H   UNK     0      20.564  -2.213   8.616  0.00  0.00     0.167 HD
ENDBRANCH  47  49
ENDBRANCH  46  47
ENDBRANCH  45  46
ENDBRANCH  11  45
BRANCH  18  51
HETATM   51  C   UNK     0      20.864  -5.389   3.987  0.00  0.00     0.051 C 
BRANCH  51  52
HETATM   52  C   UNK     0      21.996  -5.072   4.953  0.00  0.00     0.114 C 
BRANCH  52  53
HETATM   53  C   UNK     0      21.570  -5.202   6.360  0.00  0.00     0.139 C 
HETATM   54  O   UNK     0      21.201  -6.304   6.798  0.00  0.00    -0.650 OA
BRANCH  53  55
HETATM   55  O   UNK     0      21.581  -4.099   7.178  0.00  0.00    -0.776 OA
HETATM   56  H   UNK     0      20.798  -3.718   7.655  0.00  0.00     0.167 HD
ENDBRANCH  53  55
ENDBRANCH  52  53
ENDBRANCH  51  52
ENDBRANCH  18  51
TORSDOF 16
ENDMDL
MODEL 7
REMARK VINA RESULT:      -8.3     27.513     30.324
REMARK  16 active torsions:
REMARK  status: ('A' for Active; 'I' for Inactive)
REMARK    1  A    between atoms: C_6  and  C_7 
REMARK    2  A    between atoms: C_7  and  C_8 
REMARK    3  A    between atoms: C_8  and  C_9 
REMARK    4  A    between atoms: C_9  and  O_11 
REMARK    5  A    between atoms: C_16  and  C_17 
REMARK    6  A    between atoms: C_17  and  C_18 
REMARK    7  A    between atoms: C_18  and  C_19 
REMARK    8  A    between atoms: C_19  and  O_21 
REMARK    9  A    between atoms: C_28  and  C_29 
REMARK   10  A    between atoms: C_29  and  C_30 
REMARK   11  A    between atoms: C_30  and  C_31 
REMARK   12  A    between atoms: C_31  and  O_33 
REMARK   13  A    between atoms: C_42  and  C_43 
REMARK   14  A    between atoms: C_43  and  C_44 
REMARK   15  A    between atoms: C_44  and  C_45 
REMARK   16  A    between atoms: C_45  and  O_47 
ROOT
HETATM    1  C   UNK     0      18.009  -4.927   1.361  0.00  0.00     0.051 C 
HETATM    2  C   UNK     0      18.202  -5.128   2.850  0.00  0.00    -0.031 A 
HETATM    3  C   UNK     0      18.932  -4.371   3.753  0.00  0.00     0.021 A 
HETATM    4  N   UNK     0      18.847  -4.942   4.978  0.00  0.00    -0.361 N 
HETATM    5  C   UNK     0      18.073  -6.042   4.877  0.00  0.00     0.022 A 
HETATM    6  C   UNK     0      17.655  -6.190   3.559  0.00  0.00    -0.027 A 
HETATM    7  C   UNK     0      17.593  -6.970   5.950  0.00  0.00     0.115 C 
HETATM    8  C   UNK     0      17.117  -6.330   7.242  0.00  0.00     0.021 A 
HETATM    9  N   UNK     0      16.460  -5.172   7.409  0.00  0.00    -0.361 N 
HETATM   10  C   UNK     0      16.323  -4.955   8.734  0.00  0.00     0.022 A 
HETATM   11  C   UNK     0      16.900  -6.007   9.440  0.00  0.00    -0.027 A 
HETATM   12  C   UNK     0      17.402  -6.877   8.506  0.00  0.00    -0.031 A 
HETATM   13  C   UNK     0      18.116  -8.174   8.814  0.00  0.00     0.051 C 
HETATM   14  C   UNK     0      15.694  -3.727   9.386  0.00  0.00     0.115 C 
HETATM   15  C   UNK     0      16.403  -2.423   9.056  0.00  0.00     0.021 A 
HETATM   16  N   UNK     0      16.614  -1.888   7.839  0.00  0.00    -0.361 N 
HETATM   17  C   UNK     0      17.335  -0.772   7.970  0.00  0.00     0.022 A 
HETATM   18  C   UNK     0      17.598  -0.565   9.339  0.00  0.00    -0.027 A 
HETATM   19  C   UNK     0      17.008  -1.605  10.009  0.00  0.00    -0.031 A 
HETATM   20  C   UNK     0      17.020  -1.752  11.519  0.00  0.00     0.051 C 
HETATM   21  C   UNK     0      17.893   0.154   6.913  0.00  0.00     0.115 C 
HETATM   22  C   UNK     0      18.330  -0.464   5.606  0.00  0.00     0.022 A 
HETATM   23  N   UNK     0      18.982  -1.618   5.409  0.00  0.00    -0.361 N 
HETATM   24  C   UNK     0      19.038  -1.852   4.083  0.00  0.00     0.021 A 
HETATM   25  C   UNK     0      18.416  -0.819   3.408  0.00  0.00    -0.031 A 
HETATM   26  C   UNK     0      18.260  -0.613   1.916  0.00  0.00     0.051 C 
HETATM   27  C   UNK     0      17.956   0.082   4.361  0.00  0.00    -0.027 A 
HETATM   28  C   UNK     0      19.596  -3.076   3.378  0.00  0.00     0.115 C 
HETATM   29  H   UNK     0      19.368  -4.586   5.897  0.00  0.00     0.165 HD
HETATM   30  H   UNK     0      16.047  -4.530   6.593  0.00  0.00     0.165 HD
HETATM   31  H   UNK     0      16.206  -2.279   6.871  0.00  0.00     0.165 HD
HETATM   32  H   UNK     0      19.447  -2.256   6.204  0.00  0.00     0.165 HD
ENDROOT
BRANCH   6  33
HETATM   33  C   UNK     0      16.788  -7.251   2.930  0.00  0.00     0.051 C 
BRANCH  33  34
HETATM   34  C   UNK     0      15.423  -7.279   3.576  0.00  0.00     0.114 C 
BRANCH  34  35
HETATM   35  C   UNK     0      14.933  -8.687   3.524  0.00  0.00     0.139 C 
HETATM   36  O   UNK     0      14.480  -9.164   2.443  0.00  0.00    -0.650 OA
BRANCH  35  37
HETATM   37  O   UNK     0      14.951  -9.528   4.630  0.00  0.00    -0.776 OA
HETATM   38  H   UNK     0      14.796  -9.185   5.564  0.00  0.00     0.167 HD
ENDBRANCH  35  37
ENDBRANCH  34  35
ENDBRANCH  33  34
ENDBRANCH   6  33
BRANCH  27  39
HETATM   39  C   UNK     0      17.291   1.366   4.009  0.00  0.00     0.051 C 
BRANCH  39  40
HETATM   40  C   UNK     0      15.856   1.349   3.723  0.00  0.00     0.114 C 
BRANCH  40  41
HETATM   41  C   UNK     0      14.961   0.391   4.330  0.00  0.00     0.139 C 
HETATM   42  O   UNK     0      14.470  -0.569   3.720  0.00  0.00    -0.650 OA
BRANCH  41  43
HETATM   43  O   UNK     0      14.613   0.543   5.702  0.00  0.00    -0.776 OA
HETATM   44  H   UNK     0      13.633   0.389   5.906  0.00  0.00     0.167 HD
ENDBRANCH  41  43
ENDBRANCH  40  41
ENDBRANCH  39  40
ENDBRANCH  27  39
BRANCH  11  45
HETATM   45  C   UNK     0      16.984  -6.207  10.929  0.00  0.00     0.051 C 
BRANCH  45  46
HETATM   46  C   UNK     0      15.896  -7.049  11.490  0.00  0.00     0.114 C 
BRANCH  46  47
HETATM   47  C   UNK     0      16.467  -7.795  12.648  0.00  0.00     0.139 C 
HETATM   48  O   UNK     0      16.538  -9.030  12.579  0.00  0.00    -0.650 OA
BRANCH  47  49
HETATM   49  O   UNK     0      16.904  -7.130  13.766  0.00  0.00    -0.776 OA
HETATM   50  H   UNK     0      16.252  -6.726  14.449  0.00  0.00     0.167 HD
ENDBRANCH  47  49
ENDBRANCH  46  47
ENDBRANCH  45  46
ENDBRANCH  11  45
BRANCH  18  51
HETATM   51  C   UNK     0      18.352   0.573   9.975  0.00  0.00     0.051 C 
BRANCH  51  52
HETATM   52  C   UNK     0      19.830   0.273   9.771  0.00  0.00     0.114 C 
BRANCH  52  53
HETATM   53  C   UNK     0      20.409  -0.442  10.925  0.00  0.00     0.139 C 
HETATM   54  O   UNK     0      20.512   0.130  12.022  0.00  0.00    -0.650 OA
BRANCH  53  55
HETATM   55  O   UNK     0      20.837  -1.738  10.777  0.00  0.00    -0.776 OA
HETATM   56  H   UNK     0      21.384  -2.091  10.026  0.00  0.00     0.167 HD
ENDBRANCH  53  55
ENDBRANCH  52  53
ENDBRANCH  51  52
ENDBRANCH  18  51
TORSDOF 16
ENDMDL
MODEL 8
REMARK VINA RESULT:      -8.2     12.080     16.808
REMARK  16 active torsions:
REMARK  status: ('A' for Active; 'I' for Inactive)
REMARK    1  A    between atoms: C_6  and  C_7 
REMARK    2  A    between atoms: C_7  and  C_8 
REMARK    3  A    between atoms: C_8  and  C_9 
REMARK    4  A    between atoms: C_9  and  O_11 
REMARK    5  A    between atoms: C_16  and  C_17 
REMARK    6  A    between atoms: C_17  and  C_18 
REMARK    7  A    between atoms: C_18  and  C_19 
REMARK    8  A    between atoms: C_19  and  O_21 
REMARK    9  A    between atoms: C_28  and  C_29 
REMARK   10  A    between atoms: C_29  and  C_30 
REMARK   11  A    between atoms: C_30  and  C_31 
REMARK   12  A    between atoms: C_31  and  O_33 
REMARK   13  A    between atoms: C_42  and  C_43 
REMARK   14  A    between atoms: C_43  and  C_44 
REMARK   15  A    between atoms: C_44  and  C_45 
REMARK   16  A    between atoms: C_45  and  O_47 
ROOT
HETATM    1  C   UNK     0      25.979  18.790   4.434  0.00  0.00     0.051 C 
HETATM    2  C   UNK     0      25.114  18.304   3.288  0.00  0.00    -0.031 A 
HETATM    3  C   UNK     0      24.487  19.032   2.290  0.00  0.00     0.021 A 
HETATM    4  N   UNK     0      23.791  18.184   1.496  0.00  0.00    -0.361 N 
HETATM    5  C   UNK     0      23.968  16.930   1.962  0.00  0.00     0.022 A 
HETATM    6  C   UNK     0      24.788  16.969   3.084  0.00  0.00    -0.027 A 
HETATM    7  C   UNK     0      23.494  15.628   1.395  0.00  0.00     0.115 C 
HETATM    8  C   UNK     0      23.612  15.457  -0.109  0.00  0.00     0.021 A 
HETATM    9  N   UNK     0      24.572  15.911  -0.930  0.00  0.00    -0.361 N 
HETATM   10  C   UNK     0      24.221  15.603  -2.197  0.00  0.00     0.022 A 
HETATM   11  C   UNK     0      23.006  14.924  -2.191  0.00  0.00    -0.027 A 
HETATM   12  C   UNK     0      22.617  14.828  -0.879  0.00  0.00    -0.031 A 
HETATM   13  C   UNK     0      21.353  14.159  -0.389  0.00  0.00     0.051 C 
HETATM   14  C   UNK     0      24.986  15.982  -3.461  0.00  0.00     0.115 C 
HETATM   15  C   UNK     0      25.130  17.482  -3.668  0.00  0.00     0.021 A 
HETATM   16  N   UNK     0      25.706  18.373  -2.840  0.00  0.00    -0.361 N 
HETATM   17  C   UNK     0      25.567  19.599  -3.349  0.00  0.00     0.022 A 
HETATM   18  C   UNK     0      24.875  19.500  -4.573  0.00  0.00    -0.027 A 
HETATM   19  C   UNK     0      24.608  18.169  -4.761  0.00  0.00    -0.031 A 
HETATM   20  C   UNK     0      23.902  17.615  -5.985  0.00  0.00     0.051 C 
HETATM   21  C   UNK     0      25.970  20.940  -2.779  0.00  0.00     0.115 C 
HETATM   22  C   UNK     0      25.899  21.110  -1.280  0.00  0.00     0.022 A 
HETATM   23  N   UNK     0      24.958  20.665  -0.437  0.00  0.00    -0.361 N 
HETATM   24  C   UNK     0      25.366  20.914   0.823  0.00  0.00     0.021 A 
HETATM   25  C   UNK     0      26.595  21.544   0.791  0.00  0.00    -0.031 A 
HETATM   26  C   UNK     0      27.435  22.055   1.944  0.00  0.00     0.051 C 
HETATM   27  C   UNK     0      26.957  21.681  -0.544  0.00  0.00    -0.027 A 
HETATM   28  C   UNK     0      24.682  20.512   2.118  0.00  0.00     0.115 C 
HETATM   29  H   UNK     0      23.147  18.481   0.636  0.00  0.00     0.165 HD
HETATM   30  H   UNK     0      25.523  16.406  -0.615  0.00  0.00     0.165 HD
HETATM   31  H   UNK     0      26.265  18.128  -1.899  0.00  0.00     0.165 HD
HETATM   32  H   UNK     0      23.975  20.209  -0.726  0.00  0.00     0.165 HD
ENDROOT
BRANCH   6  33
HETATM   33  C   UNK     0      25.277  15.850   3.968  0.00  0.00     0.051 C 
BRANCH  33  34
HETATM   34  C   UNK     0      26.684  15.448   3.593  0.00  0.00     0.114 C 
BRANCH  34  35
HETATM   35  C   UNK     0      26.587  14.244   2.719  0.00  0.00     0.139 C 
HETATM   36  O   UNK     0      26.334  13.111   3.222  0.00  0.00    -0.650 OA
BRANCH  35  37
HETATM   37  O   UNK     0      26.761  14.302   1.342  0.00  0.00    -0.776 OA
HETATM   38  H   UNK     0      26.082  14.731   0.734  0.00  0.00     0.167 HD
ENDBRANCH  35  37
ENDBRANCH  34  35
ENDBRANCH  33  34
ENDBRANCH   6  33
BRANCH  27  39
HETATM   39  C   UNK     0      28.196  22.381  -0.981  0.00  0.00     0.051 C 
BRANCH  39  40
HETATM   40  C   UNK     0      29.478  21.703  -0.796  0.00  0.00     0.114 C 
BRANCH  40  41
HETATM   41  C   UNK     0      29.604  20.264  -0.854  0.00  0.00     0.139 C 
HETATM   42  O   UNK     0      30.024  19.576   0.086  0.00  0.00    -0.650 OA
BRANCH  41  43
HETATM   43  O   UNK     0      29.229  19.584  -2.048  0.00  0.00    -0.776 OA
HETATM   44  H   UNK     0      28.324  19.852  -2.415  0.00  0.00     0.167 HD
ENDBRANCH  41  43
ENDBRANCH  40  41
ENDBRANCH  39  40
ENDBRANCH  27  39
BRANCH  11  45
HETATM   45  C   UNK     0      22.228  14.376  -3.357  0.00  0.00     0.051 C 
BRANCH  45  46
HETATM   46  C   UNK     0      22.782  13.118  -3.918  0.00  0.00     0.114 C 
BRANCH  46  47
HETATM   47  C   UNK     0      23.178  13.399  -5.328  0.00  0.00     0.139 C 
HETATM   48  O   UNK     0      22.593  14.306  -5.937  0.00  0.00    -0.650 OA
BRANCH  47  49
HETATM   49  O   UNK     0      24.166  12.671  -5.939  0.00  0.00    -0.776 OA
HETATM   50  H   UNK     0      24.991  12.335  -5.428  0.00  0.00     0.167 HD
ENDBRANCH  47  49
ENDBRANCH  46  47
ENDBRANCH  45  46
ENDBRANCH  11  45
BRANCH  18  51
HETATM   51  C   UNK     0      24.506  20.612  -5.521  0.00  0.00     0.051 C 
BRANCH  51  52
HETATM   52  C   UNK     0      23.008  20.828  -5.362  0.00  0.00     0.114 C 
BRANCH  52  53
HETATM   53  C   UNK     0      22.705  21.848  -4.340  0.00  0.00     0.139 C 
HETATM   54  O   UNK     0      22.621  23.044  -4.661  0.00  0.00    -0.650 OA
BRANCH  53  55
HETATM   55  O   UNK     0      22.520  21.466  -3.033  0.00  0.00    -0.776 OA
HETATM   56  H   UNK     0      22.517  20.534  -2.692  0.00  0.00     0.167 HD
ENDBRANCH  53  55
ENDBRANCH  52  53
ENDBRANCH  51  52
ENDBRANCH  18  51
TORSDOF 16
ENDMDL
MODEL 9
REMARK VINA RESULT:      -8.2     26.768     29.798
REMARK  16 active torsions:
REMARK  status: ('A' for Active; 'I' for Inactive)
REMARK    1  A    between atoms: C_6  and  C_7 
REMARK    2  A    between atoms: C_7  and  C_8 
REMARK    3  A    between atoms: C_8  and  C_9 
REMARK    4  A    between atoms: C_9  and  O_11 
REMARK    5  A    between atoms: C_16  and  C_17 
REMARK    6  A    between atoms: C_17  and  C_18 
REMARK    7  A    between atoms: C_18  and  C_19 
REMARK    8  A    between atoms: C_19  and  O_21 
REMARK    9  A    between atoms: C_28  and  C_29 
REMARK   10  A    between atoms: C_29  and  C_30 
REMARK   11  A    between atoms: C_30  and  C_31 
REMARK   12  A    between atoms: C_31  and  O_33 
REMARK   13  A    between atoms: C_42  and  C_43 
REMARK   14  A    between atoms: C_43  and  C_44 
REMARK   15  A    between atoms: C_44  and  C_45 
REMARK   16  A    between atoms: C_45  and  O_47 
ROOT
HETATM    1  C   UNK     0     -11.105  17.781   6.865  0.00  0.00     0.051 C 
HETATM    2  C   UNK     0     -10.606  17.345   8.228  0.00  0.00    -0.031 A 
HETATM    3  C   UNK     0      -9.468  17.738   8.915  0.00  0.00     0.021 A 
HETATM    4  N   UNK     0      -9.407  17.065  10.088  0.00  0.00    -0.361 N 
HETATM    5  C   UNK     0     -10.486  16.259  10.168  0.00  0.00     0.022 A 
HETATM    6  C   UNK     0     -11.255  16.407   9.019  0.00  0.00    -0.027 A 
HETATM    7  C   UNK     0     -10.937  15.381  11.294  0.00  0.00     0.115 C 
HETATM    8  C   UNK     0     -10.837  15.962  12.693  0.00  0.00     0.021 A 
HETATM    9  N   UNK     0     -11.030  17.230  13.088  0.00  0.00    -0.361 N 
HETATM   10  C   UNK     0     -10.744  17.307  14.405  0.00  0.00     0.022 A 
HETATM   11  C   UNK     0     -10.365  16.053  14.873  0.00  0.00    -0.027 A 
HETATM   12  C   UNK     0     -10.421  15.201  13.800  0.00  0.00    -0.031 A 
HETATM   13  C   UNK     0     -10.097  13.724  13.838  0.00  0.00     0.051 C 
HETATM   14  C   UNK     0     -10.765  18.572  15.259  0.00  0.00     0.115 C 
HETATM   15  C   UNK     0      -9.793  19.645  14.794  0.00  0.00     0.021 A 
HETATM   16  N   UNK     0      -9.748  20.246  13.591  0.00  0.00    -0.361 N 
HETATM   17  C   UNK     0      -8.705  21.079  13.556  0.00  0.00     0.022 A 
HETATM   18  C   UNK     0      -8.045  21.025  14.800  0.00  0.00    -0.027 A 
HETATM   19  C   UNK     0      -8.737  20.124  15.567  0.00  0.00    -0.031 A 
HETATM   20  C   UNK     0      -8.381  19.791  17.004  0.00  0.00     0.051 C 
HETATM   21  C   UNK     0      -8.178  21.929  12.422  0.00  0.00     0.115 C 
HETATM   22  C   UNK     0      -8.311  21.383  11.020  0.00  0.00     0.022 A 
HETATM   23  N   UNK     0      -8.129  20.125  10.599  0.00  0.00    -0.361 N 
HETATM   24  C   UNK     0      -8.495  20.055   9.303  0.00  0.00     0.021 A 
HETATM   25  C   UNK     0      -8.913  21.300   8.877  0.00  0.00    -0.031 A 
HETATM   26  C   UNK     0      -9.377  21.731   7.501  0.00  0.00     0.051 C 
HETATM   27  C   UNK     0      -8.805  22.167   9.958  0.00  0.00    -0.027 A 
HETATM   28  C   UNK     0      -8.552  18.821   8.419  0.00  0.00     0.115 C 
HETATM   29  H   UNK     0      -8.581  17.135  10.834  0.00  0.00     0.165 HD
HETATM   30  H   UNK     0     -11.417  18.063  12.451  0.00  0.00     0.165 HD
HETATM   31  H   UNK     0     -10.494  20.116  12.764  0.00  0.00     0.165 HD
HETATM   32  H   UNK     0      -7.699  19.283  11.201  0.00  0.00     0.165 HD
ENDROOT
BRANCH   6  33
HETATM   33  C   UNK     0     -12.543  15.732   8.621  0.00  0.00     0.051 C 
BRANCH  33  34
HETATM   34  C   UNK     0     -13.735  16.549   9.063  0.00  0.00     0.114 C 
BRANCH  34  35
HETATM   35  C   UNK     0     -14.482  16.949   7.836  0.00  0.00     0.139 C 
HETATM   36  O   UNK     0     -14.546  18.167   7.498  0.00  0.00    -0.650 OA
BRANCH  35  37
HETATM   37  O   UNK     0     -15.128  16.029   7.019  0.00  0.00    -0.776 OA
HETATM   38  H   UNK     0     -15.900  15.472   7.347  0.00  0.00     0.167 HD
ENDBRANCH  35  37
ENDBRANCH  34  35
ENDBRANCH  33  34
ENDBRANCH   6  33
BRANCH  27  39
HETATM   39  C   UNK     0      -9.100  23.623   9.863  0.00  0.00     0.051 C 
BRANCH  39  40
HETATM   40  C   UNK     0     -10.293  24.134  10.537  0.00  0.00     0.114 C 
BRANCH  40  41
HETATM   41  C   UNK     0     -11.516  23.369  10.626  0.00  0.00     0.139 C 
HETATM   42  O   UNK     0     -11.914  22.835  11.670  0.00  0.00    -0.650 OA
BRANCH  41  43
HETATM   43  O   UNK     0     -12.317  23.209   9.460  0.00  0.00    -0.776 OA
HETATM   44  H   UNK     0     -12.158  22.344   8.957  0.00  0.00     0.167 HD
ENDBRANCH  41  43
ENDBRANCH  40  41
ENDBRANCH  39  40
ENDBRANCH  27  39
BRANCH  11  45
HETATM   45  C   UNK     0      -9.965  15.649  16.267  0.00  0.00     0.051 C 
BRANCH  45  46
HETATM   46  C   UNK     0      -8.724  16.303  16.755  0.00  0.00     0.114 C 
BRANCH  46  47
HETATM   47  C   UNK     0      -7.634  15.287  16.689  0.00  0.00     0.139 C 
HETATM   48  O   UNK     0      -7.023  15.006  17.729  0.00  0.00    -0.650 OA
BRANCH  47  49
HETATM   49  O   UNK     0      -7.313  14.677  15.503  0.00  0.00    -0.776 OA
HETATM   50  H   UNK     0      -6.636  13.907  15.452  0.00  0.00     0.167 HD
ENDBRANCH  47  49
ENDBRANCH  46  47
ENDBRANCH  45  46
ENDBRANCH  11  45
BRANCH  18  51
HETATM   51  C   UNK     0      -6.834  21.806  15.240  0.00  0.00     0.051 C 
BRANCH  51  52
HETATM   52  C   UNK     0      -7.295  23.245  15.415  0.00  0.00     0.114 C 
BRANCH  52  53
HETATM   53  C   UNK     0      -8.102  23.419  16.639  0.00  0.00     0.139 C 
HETATM   54  O   UNK     0      -9.258  23.864  16.562  0.00  0.00    -0.650 OA
BRANCH  53  55
HETATM   55  O   UNK     0      -7.566  23.088  17.859  0.00  0.00    -0.776 OA
HETATM   56  H   UNK     0      -7.141  22.222  18.096  0.00  0.00     0.167 HD
ENDBRANCH  53  55
ENDBRANCH  52  53
ENDBRANCH  51  52
ENDBRANCH  18  51
TORSDOF 16
ENDMDL
MODEL 10
REMARK VINA RESULT:      -8.1     11.606     15.058
REMARK  16 active torsions:
REMARK  status: ('A' for Active; 'I' for Inactive)
REMARK    1  A    between atoms: C_6  and  C_7 
REMARK    2  A    between atoms: C_7  and  C_8 
REMARK    3  A    between atoms: C_8  and  C_9 
REMARK    4  A    between atoms: C_9  and  O_11 
REMARK    5  A    between atoms: C_16  and  C_17 
REMARK    6  A    between atoms: C_17  and  C_18 
REMARK    7  A    between atoms: C_18  and  C_19 
REMARK    8  A    between atoms: C_19  and  O_21 
REMARK    9  A    between atoms: C_28  and  C_29 
REMARK   10  A    between atoms: C_29  and  C_30 
REMARK   11  A    between atoms: C_30  and  C_31 
REMARK   12  A    between atoms: C_31  and  O_33 
REMARK   13  A    between atoms: C_42  and  C_43 
REMARK   14  A    between atoms: C_43  and  C_44 
REMARK   15  A    between atoms: C_44  and  C_45 
REMARK   16  A    between atoms: C_45  and  O_47 
ROOT
HETATM    1  C   UNK     0      23.335  11.286  -4.503  0.00  0.00     0.051 C 
HETATM    2  C   UNK     0      23.195  12.792  -4.414  0.00  0.00    -0.031 A 
HETATM    3  C   UNK     0      22.789  13.576  -3.345  0.00  0.00     0.021 A 
HETATM    4  N   UNK     0      22.783  14.875  -3.728  0.00  0.00    -0.361 N 
HETATM    5  C   UNK     0      23.185  14.937  -5.014  0.00  0.00     0.022 A 
HETATM    6  C   UNK     0      23.447  13.651  -5.475  0.00  0.00    -0.027 A 
HETATM    7  C   UNK     0      23.438  16.134  -5.876  0.00  0.00     0.115 C 
HETATM    8  C   UNK     0      24.172  17.296  -5.229  0.00  0.00     0.021 A 
HETATM    9  N   UNK     0      25.155  17.260  -4.316  0.00  0.00    -0.361 N 
HETATM   10  C   UNK     0      25.442  18.530  -3.959  0.00  0.00     0.022 A 
HETATM   11  C   UNK     0      24.628  19.408  -4.668  0.00  0.00    -0.027 A 
HETATM   12  C   UNK     0      23.826  18.637  -5.470  0.00  0.00    -0.031 A 
HETATM   13  C   UNK     0      22.780  19.166  -6.426  0.00  0.00     0.051 C 
HETATM   14  C   UNK     0      26.453  18.961  -2.900  0.00  0.00     0.115 C 
HETATM   15  C   UNK     0      26.145  18.441  -1.506  0.00  0.00     0.021 A 
HETATM   16  N   UNK     0      26.020  17.158  -1.117  0.00  0.00    -0.361 N 
HETATM   17  C   UNK     0      25.676  17.122   0.172  0.00  0.00     0.022 A 
HETATM   18  C   UNK     0      25.582  18.445   0.649  0.00  0.00    -0.027 A 
HETATM   19  C   UNK     0      25.879  19.261  -0.411  0.00  0.00    -0.031 A 
HETATM   20  C   UNK     0      25.929  20.775  -0.322  0.00  0.00     0.051 C 
HETATM   21  C   UNK     0      25.348  15.942   1.058  0.00  0.00     0.115 C 
HETATM   22  C   UNK     0      24.657  14.760   0.418  0.00  0.00     0.022 A 
HETATM   23  N   UNK     0      23.678  14.767  -0.496  0.00  0.00    -0.361 N 
HETATM   24  C   UNK     0      23.463  13.497  -0.895  0.00  0.00     0.021 A 
HETATM   25  C   UNK     0      24.317  12.651  -0.213  0.00  0.00    -0.031 A 
HETATM   26  C   UNK     0      24.423  11.142  -0.286  0.00  0.00     0.051 C 
HETATM   27  C   UNK     0      25.091  13.437   0.634  0.00  0.00    -0.027 A 
HETATM   28  C   UNK     0      22.518  13.011  -1.980  0.00  0.00     0.115 C 
HETATM   29  H   UNK     0      22.458  15.735  -3.098  0.00  0.00     0.165 HD
HETATM   30  H   UNK     0      25.683  16.342  -3.959  0.00  0.00     0.165 HD
HETATM   31  H   UNK     0      26.224  16.257  -1.753  0.00  0.00     0.165 HD
HETATM   32  H   UNK     0      23.100  15.664  -0.838  0.00  0.00     0.165 HD
ENDROOT
BRANCH   6  33
HETATM   33  C   UNK     0      23.912  13.183  -6.831  0.00  0.00     0.051 C 
BRANCH  33  34
HETATM   34  C   UNK     0      22.740  13.004  -7.766  0.00  0.00     0.114 C 
BRANCH  34  35
HETATM   35  C   UNK     0      23.170  13.470  -9.116  0.00  0.00     0.139 C 
HETATM   36  O   UNK     0      22.309  13.838  -9.967  0.00  0.00    -0.650 OA
BRANCH  35  37
HETATM   37  O   UNK     0      24.505  13.526  -9.499  0.00  0.00    -0.776 OA
HETATM   38  H   UNK     0      24.788  13.872 -10.402  0.00  0.00     0.167 HD
ENDBRANCH  35  37
ENDBRANCH  34  35
ENDBRANCH  33  34
ENDBRANCH   6  33
BRANCH  27  39
HETATM   39  C   UNK     0      26.083  12.868   1.586  0.00  0.00     0.051 C 
BRANCH  39  40
HETATM   40  C   UNK     0      27.503  12.964   1.249  0.00  0.00     0.114 C 
BRANCH  40  41
HETATM   41  C   UNK     0      27.958  13.375  -0.060  0.00  0.00     0.139 C 
HETATM   42  O   UNK     0      28.111  12.593  -1.008  0.00  0.00    -0.650 OA
BRANCH  41  43
HETATM   43  O   UNK     0      28.250  14.750  -0.289  0.00  0.00    -0.776 OA
HETATM   44  H   UNK     0      27.648  15.395   0.209  0.00  0.00     0.167 HD
ENDBRANCH  41  43
ENDBRANCH  40  41
ENDBRANCH  39  40
ENDBRANCH  27  39
BRANCH  11  45
HETATM   45  C   UNK     0      24.591  20.912  -4.611  0.00  0.00     0.051 C 
BRANCH  45  46
HETATM   46  C   UNK     0      23.796  21.456  -3.481  0.00  0.00     0.114 C 
BRANCH  46  47
HETATM   47  C   UNK     0      22.536  22.011  -4.054  0.00  0.00     0.139 C 
HETATM   48  O   UNK     0      22.616  22.928  -4.883  0.00  0.00    -0.650 OA
BRANCH  47  49
HETATM   49  O   UNK     0      21.314  21.519  -3.672  0.00  0.00    -0.776 OA
HETATM   50  H   UNK     0      20.718  22.007  -2.993  0.00  0.00     0.167 HD
ENDBRANCH  47  49
ENDBRANCH  46  47
ENDBRANCH  45  46
ENDBRANCH  11  45
BRANCH  18  51
HETATM   51  C   UNK     0      25.249  18.905   2.045  0.00  0.00     0.051 C 
BRANCH  51  52
HETATM   52  C   UNK     0      23.765  19.243   2.039  0.00  0.00     0.114 C 
BRANCH  52  53
HETATM   53  C   UNK     0      23.436  20.289   3.026  0.00  0.00     0.139 C 
HETATM   54  O   UNK     0      24.176  20.475   4.005  0.00  0.00    -0.650 OA
BRANCH  53  55
HETATM   55  O   UNK     0      22.305  21.051   2.857  0.00  0.00    -0.776 OA
HETATM   56  H   UNK     0      21.814  21.185   2.005  0.00  0.00     0.167 HD
ENDBRANCH  53  55
ENDBRANCH  52  53
ENDBRANCH  51  52
ENDBRANCH  18  51
TORSDOF 16
ENDMDL
MODEL 11
REMARK VINA RESULT:      -8.1     27.866     30.569
REMARK  16 active torsions:
REMARK  status: ('A' for Active; 'I' for Inactive)
REMARK    1  A    between atoms: C_6  and  C_7 
REMARK    2  A    between atoms: C_7  and  C_8 
REMARK    3  A    between atoms: C_8  and  C_9 
REMARK    4  A    between atoms: C_9  and  O_11 
REMARK    5  A    between atoms: C_16  and  C_17 
REMARK    6  A    between atoms: C_17  and  C_18 
REMARK    7  A    between atoms: C_18  and  C_19 
REMARK    8  A    between atoms: C_19  and  O_21 
REMARK    9  A    between atoms: C_28  and  C_29 
REMARK   10  A    between atoms: C_29  and  C_30 
REMARK   11  A    between atoms: C_30  and  C_31 
REMARK   12  A    between atoms: C_31  and  O_33 
REMARK   13  A    between atoms: C_42  and  C_43 
REMARK   14  A    between atoms: C_43  and  C_44 
REMARK   15  A    between atoms: C_44  and  C_45 
REMARK   16  A    between atoms: C_45  and  O_47 
ROOT
HETATM    1  C   UNK     0      16.459  -0.299  12.155  0.00  0.00     0.051 C 
HETATM    2  C   UNK     0      16.807  -0.452  10.688  0.00  0.00    -0.031 A 
HETATM    3  C   UNK     0      17.697   0.276   9.914  0.00  0.00     0.021 A 
HETATM    4  N   UNK     0      17.663  -0.192   8.644  0.00  0.00    -0.361 N 
HETATM    5  C   UNK     0      16.777  -1.208   8.593  0.00  0.00     0.022 A 
HETATM    6  C   UNK     0      16.221  -1.396   9.854  0.00  0.00    -0.027 A 
HETATM    7  C   UNK     0      16.438  -2.120   7.455  0.00  0.00     0.115 C 
HETATM    8  C   UNK     0      17.600  -2.633   6.623  0.00  0.00     0.021 A 
HETATM    9  N   UNK     0      18.837  -2.961   7.027  0.00  0.00    -0.361 N 
HETATM   10  C   UNK     0      19.564  -3.278   5.935  0.00  0.00     0.022 A 
HETATM   11  C   UNK     0      18.771  -3.160   4.797  0.00  0.00    -0.027 A 
HETATM   12  C   UNK     0      17.532  -2.754   5.224  0.00  0.00    -0.031 A 
HETATM   13  C   UNK     0      16.340  -2.500   4.329  0.00  0.00     0.051 C 
HETATM   14  C   UNK     0      21.043  -3.652   5.915  0.00  0.00     0.115 C 
HETATM   15  C   UNK     0      21.962  -2.560   6.439  0.00  0.00     0.021 A 
HETATM   16  N   UNK     0      21.942  -1.984   7.655  0.00  0.00    -0.361 N 
HETATM   17  C   UNK     0      22.864  -1.019   7.699  0.00  0.00     0.022 A 
HETATM   18  C   UNK     0      23.522  -0.970   6.454  0.00  0.00    -0.027 A 
HETATM   19  C   UNK     0      22.949  -1.941   5.674  0.00  0.00    -0.031 A 
HETATM   20  C   UNK     0      23.390  -2.254   4.256  0.00  0.00     0.051 C 
HETATM   21  C   UNK     0      23.192  -0.037   8.801  0.00  0.00     0.115 C 
HETATM   22  C   UNK     0      22.051   0.448   9.664  0.00  0.00     0.022 A 
HETATM   23  N   UNK     0      20.809   0.778   9.290  0.00  0.00    -0.361 N 
HETATM   24  C   UNK     0      20.081   1.015  10.400  0.00  0.00     0.021 A 
HETATM   25  C   UNK     0      20.877   0.844  11.516  0.00  0.00    -0.031 A 
HETATM   26  C   UNK     0      20.525   1.034  12.977  0.00  0.00     0.051 C 
HETATM   27  C   UNK     0      22.143   0.481  11.071  0.00  0.00    -0.027 A 
HETATM   28  C   UNK     0      18.598   1.332  10.489  0.00  0.00     0.115 C 
HETATM   29  H   UNK     0      18.235   0.225   7.783  0.00  0.00     0.165 HD
HETATM   30  H   UNK     0      19.186  -3.018   8.087  0.00  0.00     0.165 HD
HETATM   31  H   UNK     0      21.298  -2.295   8.518  0.00  0.00     0.165 HD
HETATM   32  H   UNK     0      20.444   0.890   8.236  0.00  0.00     0.165 HD
ENDROOT
BRANCH   6  33
HETATM   33  C   UNK     0      15.188  -2.390  10.321  0.00  0.00     0.051 C 
BRANCH  33  34
HETATM   34  C   UNK     0      13.793  -1.875  10.056  0.00  0.00     0.114 C 
BRANCH  34  35
HETATM   35  C   UNK     0      12.846  -2.741  10.815  0.00  0.00     0.139 C 
HETATM   36  O   UNK     0      13.042  -3.989  10.889  0.00  0.00    -0.650 OA
BRANCH  35  37
HETATM   37  O   UNK     0      11.728  -2.235  11.469  0.00  0.00    -0.776 OA
HETATM   38  H   UNK     0      11.609  -2.316  12.466  0.00  0.00     0.167 HD
ENDBRANCH  35  37
ENDBRANCH  34  35
ENDBRANCH  33  34
ENDBRANCH   6  33
BRANCH  27  39
HETATM   39  C   UNK     0      23.297   0.278  11.988  0.00  0.00     0.051 C 
BRANCH  39  40
HETATM   40  C   UNK     0      23.576  -1.077  12.463  0.00  0.00     0.114 C 
BRANCH  40  41
HETATM   41  C   UNK     0      24.064  -2.117  11.586  0.00  0.00     0.139 C 
HETATM   42  O   UNK     0      25.253  -2.232  11.257  0.00  0.00    -0.650 OA
BRANCH  41  43
HETATM   43  O   UNK     0      23.143  -3.068  11.062  0.00  0.00    -0.776 OA
HETATM   44  H   UNK     0      22.483  -2.688  10.393  0.00  0.00     0.167 HD
ENDBRANCH  41  43
ENDBRANCH  40  41
ENDBRANCH  39  40
ENDBRANCH  27  39
BRANCH  11  45
HETATM   45  C   UNK     0      19.141  -3.416   3.361  0.00  0.00     0.051 C 
BRANCH  45  46
HETATM   46  C   UNK     0      18.493  -4.616   2.773  0.00  0.00     0.114 C 
BRANCH  46  47
HETATM   47  C   UNK     0      19.056  -5.808   3.471  0.00  0.00     0.139 C 
HETATM   48  O   UNK     0      20.253  -6.081   3.305  0.00  0.00    -0.650 OA
BRANCH  47  49
HETATM   49  O   UNK     0      18.266  -6.588   4.278  0.00  0.00    -0.776 OA
HETATM   50  H   UNK     0      18.029  -6.312   5.238  0.00  0.00     0.167 HD
ENDBRANCH  47  49
ENDBRANCH  46  47
ENDBRANCH  45  46
ENDBRANCH  11  45
BRANCH  18  51
HETATM   51  C   UNK     0      24.650  -0.063   6.037  0.00  0.00     0.051 C 
BRANCH  51  52
HETATM   52  C   UNK     0      25.923  -0.682   6.595  0.00  0.00     0.114 C 
BRANCH  52  53
HETATM   53  C   UNK     0      26.850  -1.092   5.522  0.00  0.00     0.139 C 
HETATM   54  O   UNK     0      26.592  -0.818   4.340  0.00  0.00    -0.650 OA
BRANCH  53  55
HETATM   55  O   UNK     0      27.995  -1.781   5.841  0.00  0.00    -0.776 OA
HETATM   56  H   UNK     0      28.924  -1.439   5.762  0.00  0.00     0.167 HD
ENDBRANCH  53  55
ENDBRANCH  52  53
ENDBRANCH  51  52
ENDBRANCH  18  51
TORSDOF 16
ENDMDL
MODEL 12
REMARK VINA RESULT:      -8.0     27.292     30.216
REMARK  16 active torsions:
REMARK  status: ('A' for Active; 'I' for Inactive)
REMARK    1  A    between atoms: C_6  and  C_7 
REMARK    2  A    between atoms: C_7  and  C_8 
REMARK    3  A    between atoms: C_8  and  C_9 
REMARK    4  A    between atoms: C_9  and  O_11 
REMARK    5  A    between atoms: C_16  and  C_17 
REMARK    6  A    between atoms: C_17  and  C_18 
REMARK    7  A    between atoms: C_18  and  C_19 
REMARK    8  A    between atoms: C_19  and  O_21 
REMARK    9  A    between atoms: C_28  and  C_29 
REMARK   10  A    between atoms: C_29  and  C_30 
REMARK   11  A    between atoms: C_30  and  C_31 
REMARK   12  A    between atoms: C_31  and  O_33 
REMARK   13  A    between atoms: C_42  and  C_43 
REMARK   14  A    between atoms: C_43  and  C_44 
REMARK   15  A    between atoms: C_44  and  C_45 
REMARK   16  A    between atoms: C_45  and  O_47 
ROOT
HETATM    1  C   UNK     0      15.586  -6.279   9.080  0.00  0.00     0.051 C 
HETATM    2  C   UNK     0      16.447  -5.126   9.554  0.00  0.00    -0.031 A 
HETATM    3  C   UNK     0      17.826  -4.986   9.521  0.00  0.00     0.021 A 
HETATM    4  N   UNK     0      18.163  -3.801  10.083  0.00  0.00    -0.361 N 
HETATM    5  C   UNK     0      17.028  -3.179  10.464  0.00  0.00     0.022 A 
HETATM    6  C   UNK     0      15.936  -3.981  10.151  0.00  0.00    -0.027 A 
HETATM    7  C   UNK     0      16.842  -1.812  11.046  0.00  0.00     0.115 C 
HETATM    8  C   UNK     0      17.659  -0.691  10.429  0.00  0.00     0.021 A 
HETATM    9  N   UNK     0      18.009  -0.521   9.144  0.00  0.00    -0.361 N 
HETATM   10  C   UNK     0      18.812   0.561   9.068  0.00  0.00     0.022 A 
HETATM   11  C   UNK     0      18.976   1.109  10.337  0.00  0.00    -0.027 A 
HETATM   12  C   UNK     0      18.252   0.325  11.199  0.00  0.00    -0.031 A 
HETATM   13  C   UNK     0      18.132   0.546  12.690  0.00  0.00     0.051 C 
HETATM   14  C   UNK     0      19.498   1.089   7.811  0.00  0.00     0.115 C 
HETATM   15  C   UNK     0      20.459   0.099   7.172  0.00  0.00     0.021 A 
HETATM   16  N   UNK     0      20.182  -1.137   6.717  0.00  0.00    -0.361 N 
HETATM   17  C   UNK     0      21.310  -1.711   6.294  0.00  0.00     0.022 A 
HETATM   18  C   UNK     0      22.372  -0.802   6.473  0.00  0.00    -0.027 A 
HETATM   19  C   UNK     0      21.825   0.328   7.023  0.00  0.00    -0.031 A 
HETATM   20  C   UNK     0      22.621   1.579   7.347  0.00  0.00     0.051 C 
HETATM   21  C   UNK     0      21.551  -3.107   5.764  0.00  0.00     0.115 C 
HETATM   22  C   UNK     0      20.714  -4.225   6.338  0.00  0.00     0.022 A 
HETATM   23  N   UNK     0      20.347  -4.417   7.611  0.00  0.00    -0.361 N 
HETATM   24  C   UNK     0      19.485  -5.454   7.652  0.00  0.00     0.021 A 
HETATM   25  C   UNK     0      19.302  -5.948   6.375  0.00  0.00    -0.031 A 
HETATM   26  C   UNK     0      18.463  -7.124   5.919  0.00  0.00     0.051 C 
HETATM   27  C   UNK     0      20.078  -5.178   5.516  0.00  0.00    -0.027 A 
HETATM   28  C   UNK     0      18.729  -5.987   8.856  0.00  0.00     0.115 C 
HETATM   29  H   UNK     0      19.202  -3.430  10.241  0.00  0.00     0.165 HD
HETATM   30  H   UNK     0      17.651  -1.134   8.281  0.00  0.00     0.165 HD
HETATM   31  H   UNK     0      19.162  -1.597   6.647  0.00  0.00     0.165 HD
HETATM   32  H   UNK     0      20.726  -3.850   8.501  0.00  0.00     0.165 HD
ENDROOT
BRANCH   6  33
HETATM   33  C   UNK     0      14.464  -3.747  10.376  0.00  0.00     0.051 C 
BRANCH  33  34
HETATM   34  C   UNK     0      14.071  -2.355   9.940  0.00  0.00     0.114 C 
BRANCH  34  35
HETATM   35  C   UNK     0      13.202  -1.782  11.007  0.00  0.00     0.139 C 
HETATM   36  O   UNK     0      13.579  -0.765  11.658  0.00  0.00    -0.650 OA
BRANCH  35  37
HETATM   37  O   UNK     0      11.962  -2.319  11.332  0.00  0.00    -0.776 OA
HETATM   38  H   UNK     0      11.122  -2.061  10.840  0.00  0.00     0.167 HD
ENDBRANCH  35  37
ENDBRANCH  34  35
ENDBRANCH  33  34
ENDBRANCH   6  33
BRANCH  27  39
HETATM   39  C   UNK     0      20.195  -5.457   4.059  0.00  0.00     0.051 C 
BRANCH  39  40
HETATM   40  C   UNK     0      19.067  -5.112   3.194  0.00  0.00     0.114 C 
BRANCH  40  41
HETATM   41  C   UNK     0      18.469  -3.796   3.195  0.00  0.00     0.139 C 
HETATM   42  O   UNK     0      19.126  -2.746   3.219  0.00  0.00    -0.650 OA
BRANCH  41  43
HETATM   43  O   UNK     0      17.050  -3.681   3.168  0.00  0.00    -0.776 OA
HETATM   44  H   UNK     0      16.664  -3.081   3.887  0.00  0.00     0.167 HD
ENDBRANCH  41  43
ENDBRANCH  40  41
ENDBRANCH  39  40
ENDBRANCH  27  39
BRANCH  11  45
HETATM   45  C   UNK     0      19.773   2.319  10.745  0.00  0.00     0.051 C 
BRANCH  45  46
HETATM   46  C   UNK     0      21.107   2.003  11.316  0.00  0.00     0.114 C 
BRANCH  46  47
HETATM   47  C   UNK     0      21.114   2.498  12.722  0.00  0.00     0.139 C 
HETATM   48  O   UNK     0      20.761   3.665  12.941  0.00  0.00    -0.650 OA
BRANCH  47  49
HETATM   49  O   UNK     0      21.505   1.681  13.753  0.00  0.00    -0.776 OA
HETATM   50  H   UNK     0      21.274   0.681  13.773  0.00  0.00     0.167 HD
ENDBRANCH  47  49
ENDBRANCH  46  47
ENDBRANCH  45  46
ENDBRANCH  11  45
BRANCH  18  51
HETATM   51  C   UNK     0      23.824  -0.992   6.121  0.00  0.00     0.051 C 
BRANCH  51  52
HETATM   52  C   UNK     0      23.978  -0.526   4.681  0.00  0.00     0.114 C 
BRANCH  52  53
HETATM   53  C   UNK     0      24.713  -1.507   3.860  0.00  0.00     0.139 C 
HETATM   54  O   UNK     0      25.948  -1.430   3.757  0.00  0.00    -0.650 OA
BRANCH  53  55
HETATM   55  O   UNK     0      24.024  -2.502   3.211  0.00  0.00    -0.776 OA
HETATM   56  H   UNK     0      23.564  -2.419   2.336  0.00  0.00     0.167 HD
ENDBRANCH  53  55
ENDBRANCH  52  53
ENDBRANCH  51  52
ENDBRANCH  18  51
TORSDOF 16
ENDMDL
MODEL 13
REMARK VINA RESULT:      -7.9     11.866     16.419
REMARK  16 active torsions:
REMARK  status: ('A' for Active; 'I' for Inactive)
REMARK    1  A    between atoms: C_6  and  C_7 
REMARK    2  A    between atoms: C_7  and  C_8 
REMARK    3  A    between atoms: C_8  and  C_9 
REMARK    4  A    between atoms: C_9  and  O_11 
REMARK    5  A    between atoms: C_16  and  C_17 
REMARK    6  A    between atoms: C_17  and  C_18 
REMARK    7  A    between atoms: C_18  and  C_19 
REMARK    8  A    between atoms: C_19  and  O_21 
REMARK    9  A    between atoms: C_28  and  C_29 
REMARK   10  A    between atoms: C_29  and  C_30 
REMARK   11  A    between atoms: C_30  and  C_31 
REMARK   12  A    between atoms: C_31  and  O_33 
REMARK   13  A    between atoms: C_42  and  C_43 
REMARK   14  A    between atoms: C_43  and  C_44 
REMARK   15  A    between atoms: C_44  and  C_45 
REMARK   16  A    between atoms: C_45  and  O_47 
ROOT
HETATM    1  C   UNK     0      23.991  20.911  -6.700  0.00  0.00     0.051 C 
HETATM    2  C   UNK     0      24.201  19.449  -6.361  0.00  0.00    -0.031 A 
HETATM    3  C   UNK     0      25.193  18.858  -5.594  0.00  0.00     0.021 A 
HETATM    4  N   UNK     0      25.005  17.517  -5.588  0.00  0.00    -0.361 N 
HETATM    5  C   UNK     0      23.910  17.241  -6.326  0.00  0.00     0.022 A 
HETATM    6  C   UNK     0      23.384  18.427  -6.828  0.00  0.00    -0.027 A 
HETATM    7  C   UNK     0      23.224  15.932  -6.559  0.00  0.00     0.115 C 
HETATM    8  C   UNK     0      23.064  15.022  -5.353  0.00  0.00     0.021 A 
HETATM    9  N   UNK     0      22.831  15.361  -4.076  0.00  0.00    -0.361 N 
HETATM   10  C   UNK     0      22.856  14.235  -3.332  0.00  0.00     0.022 A 
HETATM   11  C   UNK     0      23.103  13.139  -4.155  0.00  0.00    -0.027 A 
HETATM   12  C   UNK     0      23.234  13.628  -5.429  0.00  0.00    -0.031 A 
HETATM   13  C   UNK     0      23.506  12.795  -6.662  0.00  0.00     0.051 C 
HETATM   14  C   UNK     0      22.703  14.152  -1.816  0.00  0.00     0.115 C 
HETATM   15  C   UNK     0      23.775  14.906  -1.046  0.00  0.00     0.021 A 
HETATM   16  N   UNK     0      24.071  16.217  -1.122  0.00  0.00    -0.361 N 
HETATM   17  C   UNK     0      25.122  16.475  -0.341  0.00  0.00     0.022 A 
HETATM   18  C   UNK     0      25.524  15.276   0.282  0.00  0.00    -0.027 A 
HETATM   19  C   UNK     0      24.672  14.302  -0.168  0.00  0.00    -0.031 A 
HETATM   20  C   UNK     0      24.730  12.854   0.285  0.00  0.00     0.051 C 
HETATM   21  C   UNK     0      25.883  17.764  -0.130  0.00  0.00     0.115 C 
HETATM   22  C   UNK     0      26.013  18.699  -1.310  0.00  0.00     0.022 A 
HETATM   23  N   UNK     0      26.240  18.389  -2.593  0.00  0.00    -0.361 N 
HETATM   24  C   UNK     0      26.133  19.516  -3.325  0.00  0.00     0.021 A 
HETATM   25  C   UNK     0      25.840  20.579  -2.493  0.00  0.00    -0.031 A 
HETATM   26  C   UNK     0      25.666  22.043  -2.840  0.00  0.00     0.051 C 
HETATM   27  C   UNK     0      25.758  20.081  -1.197  0.00  0.00    -0.027 A 
HETATM   28  C   UNK     0      26.217  19.654  -4.836  0.00  0.00     0.115 C 
HETATM   29  H   UNK     0      25.670  16.771  -5.094  0.00  0.00     0.165 HD
HETATM   30  H   UNK     0      22.599  16.389  -3.702  0.00  0.00     0.165 HD
HETATM   31  H   UNK     0      23.497  16.987  -1.702  0.00  0.00     0.165 HD
HETATM   32  H   UNK     0      26.521  17.379  -2.988  0.00  0.00     0.165 HD
ENDROOT
BRANCH   6  33
HETATM   33  C   UNK     0      22.182  18.660  -7.707  0.00  0.00     0.051 C 
BRANCH  33  34
HETATM   34  C   UNK     0      22.579  18.674  -9.164  0.00  0.00     0.114 C 
BRANCH  34  35
HETATM   35  C   UNK     0      21.527  17.935  -9.920  0.00  0.00     0.139 C 
HETATM   36  O   UNK     0      21.586  16.676 -10.028  0.00  0.00    -0.650 OA
BRANCH  35  37
HETATM   37  O   UNK     0      20.453  18.574 -10.528  0.00  0.00    -0.776 OA
HETATM   38  H   UNK     0      20.576  19.377 -11.124  0.00  0.00     0.167 HD
ENDBRANCH  35  37
ENDBRANCH  34  35
ENDBRANCH  33  34
ENDBRANCH   6  33
BRANCH  27  39
HETATM   39  C   UNK     0      25.526  20.946  -0.009  0.00  0.00     0.051 C 
BRANCH  39  40
HETATM   40  C   UNK     0      26.685  21.380   0.770  0.00  0.00     0.114 C 
BRANCH  40  41
HETATM   41  C   UNK     0      27.981  21.598   0.168  0.00  0.00     0.139 C 
HETATM   42  O   UNK     0      28.286  22.630  -0.444  0.00  0.00    -0.650 OA
BRANCH  41  43
HETATM   43  O   UNK     0      28.972  20.581   0.275  0.00  0.00    -0.776 OA
HETATM   44  H   UNK     0      29.459  20.562   1.163  0.00  0.00     0.167 HD
ENDBRANCH  41  43
ENDBRANCH  40  41
ENDBRANCH  39  40
ENDBRANCH  27  39
BRANCH  11  45
HETATM   45  C   UNK     0      23.211  11.686  -3.780  0.00  0.00     0.051 C 
BRANCH  45  46
HETATM   46  C   UNK     0      24.443  11.345  -3.024  0.00  0.00     0.114 C 
BRANCH  46  47
HETATM   47  C   UNK     0      25.599  11.575  -3.937  0.00  0.00     0.139 C 
HETATM   48  O   UNK     0      25.766  10.799  -4.888  0.00  0.00    -0.650 OA
BRANCH  47  49
HETATM   49  O   UNK     0      26.461  12.622  -3.728  0.00  0.00    -0.776 OA
HETATM   50  H   UNK     0      27.429  12.477  -3.418  0.00  0.00     0.167 HD
ENDBRANCH  47  49
ENDBRANCH  46  47
ENDBRANCH  45  46
ENDBRANCH  11  45
BRANCH  18  51
HETATM   51  C   UNK     0      26.646  15.075   1.267  0.00  0.00     0.051 C 
BRANCH  51  52
HETATM   52  C   UNK     0      27.915  14.918   0.442  0.00  0.00     0.114 C 
BRANCH  52  53
HETATM   53  C   UNK     0      28.242  13.499   0.202  0.00  0.00     0.139 C 
HETATM   54  O   UNK     0      28.708  12.805   1.120  0.00  0.00    -0.650 OA
BRANCH  53  55
HETATM   55  O   UNK     0      28.030  12.953  -1.041  0.00  0.00    -0.776 OA
HETATM   56  H   UNK     0      27.156  12.879  -1.505  0.00  0.00     0.167 HD
ENDBRANCH  53  55
ENDBRANCH  52  53
ENDBRANCH  51  52
ENDBRANCH  18  51
TORSDOF 16
ENDMDL
MODEL 14
REMARK VINA RESULT:      -7.9     24.625     28.072
REMARK  16 active torsions:
REMARK  status: ('A' for Active; 'I' for Inactive)
REMARK    1  A    between atoms: C_6  and  C_7 
REMARK    2  A    between atoms: C_7  and  C_8 
REMARK    3  A    between atoms: C_8  and  C_9 
REMARK    4  A    between atoms: C_9  and  O_11 
REMARK    5  A    between atoms: C_16  and  C_17 
REMARK    6  A    between atoms: C_17  and  C_18 
REMARK    7  A    between atoms: C_18  and  C_19 
REMARK    8  A    between atoms: C_19  and  O_21 
REMARK    9  A    between atoms: C_28  and  C_29 
REMARK   10  A    between atoms: C_29  and  C_30 
REMARK   11  A    between atoms: C_30  and  C_31 
REMARK   12  A    between atoms: C_31  and  O_33 
REMARK   13  A    between atoms: C_42  and  C_43 
REMARK   14  A    between atoms: C_43  and  C_44 
REMARK   15  A    between atoms: C_44  and  C_45 
REMARK   16  A    between atoms: C_45  and  O_47 
ROOT
HETATM    1  C   UNK     0      18.062  -3.722   9.116  0.00  0.00     0.051 C 
HETATM    2  C   UNK     0      18.115  -2.641   8.055  0.00  0.00    -0.031 A 
HETATM    3  C   UNK     0      18.816  -2.615   6.860  0.00  0.00     0.021 A 
HETATM    4  N   UNK     0      18.591  -1.432   6.242  0.00  0.00    -0.361 N 
HETATM    5  C   UNK     0      17.756  -0.706   7.013  0.00  0.00     0.022 A 
HETATM    6  C   UNK     0      17.440  -1.431   8.157  0.00  0.00    -0.027 A 
HETATM    7  C   UNK     0      17.126   0.625   6.744  0.00  0.00     0.115 C 
HETATM    8  C   UNK     0      16.588   0.854   5.342  0.00  0.00     0.021 A 
HETATM    9  N   UNK     0      15.998  -0.027   4.519  0.00  0.00    -0.361 N 
HETATM   10  C   UNK     0      15.766   0.590   3.341  0.00  0.00     0.022 A 
HETATM   11  C   UNK     0      16.209   1.907   3.411  0.00  0.00    -0.027 A 
HETATM   12  C   UNK     0      16.728   2.080   4.669  0.00  0.00    -0.031 A 
HETATM   13  C   UNK     0      17.325   3.365   5.199  0.00  0.00     0.051 C 
HETATM   14  C   UNK     0      15.168  -0.050   2.091  0.00  0.00     0.115 C 
HETATM   15  C   UNK     0      15.989  -1.204   1.538  0.00  0.00     0.021 A 
HETATM   16  N   UNK     0      16.336  -2.341   2.168  0.00  0.00    -0.361 N 
HETATM   17  C   UNK     0      17.117  -3.067   1.365  0.00  0.00     0.022 A 
HETATM   18  C   UNK     0      17.278  -2.374   0.149  0.00  0.00    -0.027 A 
HETATM   19  C   UNK     0      16.565  -1.209   0.269  0.00  0.00    -0.031 A 
HETATM   20  C   UNK     0      16.441  -0.178  -0.837  0.00  0.00     0.051 C 
HETATM   21  C   UNK     0      17.823  -4.379   1.622  0.00  0.00     0.115 C 
HETATM   22  C   UNK     0      18.325  -4.638   3.023  0.00  0.00     0.022 A 
HETATM   23  N   UNK     0      18.912  -3.779   3.866  0.00  0.00    -0.361 N 
HETATM   24  C   UNK     0      19.064  -4.392   5.058  0.00  0.00     0.021 A 
HETATM   25  C   UNK     0      18.572  -5.680   4.976  0.00  0.00    -0.031 A 
HETATM   26  C   UNK     0      18.555  -6.763   6.035  0.00  0.00     0.051 C 
HETATM   27  C   UNK     0      18.094  -5.862   3.683  0.00  0.00    -0.027 A 
HETATM   28  C   UNK     0      19.595  -3.795   6.349  0.00  0.00     0.115 C 
HETATM   29  H   UNK     0      19.056  -1.101   5.284  0.00  0.00     0.165 HD
HETATM   30  H   UNK     0      15.700  -1.071   4.783  0.00  0.00     0.165 HD
HETATM   31  H   UNK     0      15.985  -2.661   3.184  0.00  0.00     0.165 HD
HETATM   32  H   UNK     0      19.265  -2.745   3.615  0.00  0.00     0.165 HD
ENDROOT
BRANCH   6  33
HETATM   33  C   UNK     0      16.559  -1.066   9.325  0.00  0.00     0.051 C 
BRANCH  33  34
HETATM   34  C   UNK     0      15.125  -1.456   9.056  0.00  0.00     0.114 C 
BRANCH  34  35
HETATM   35  C   UNK     0      14.349  -1.191  10.302  0.00  0.00     0.139 C 
HETATM   36  O   UNK     0      13.702  -2.124  10.860  0.00  0.00    -0.650 OA
BRANCH  35  37
HETATM   37  O   UNK     0      14.300   0.062  10.901  0.00  0.00    -0.776 OA
HETATM   38  H   UNK     0      13.429   0.506  11.142  0.00  0.00     0.167 HD
ENDBRANCH  35  37
ENDBRANCH  34  35
ENDBRANCH  33  34
ENDBRANCH   6  33
BRANCH  27  39
HETATM   39  C   UNK     0      17.549  -7.157   3.195  0.00  0.00     0.051 C 
BRANCH  39  40
HETATM   40  C   UNK     0      16.103  -7.369   3.256  0.00  0.00     0.114 C 
BRANCH  40  41
HETATM   41  C   UNK     0      15.511  -8.418   4.056  0.00  0.00     0.139 C 
HETATM   42  O   UNK     0      15.615  -8.478   5.289  0.00  0.00    -0.650 OA
BRANCH  41  43
HETATM   43  O   UNK     0      14.766  -9.444   3.409  0.00  0.00    -0.776 OA
HETATM   44  H   UNK     0      14.322  -9.158   2.545  0.00  0.00     0.167 HD
ENDBRANCH  41  43
ENDBRANCH  40  41
ENDBRANCH  39  40
ENDBRANCH  27  39
BRANCH  11  45
HETATM   45  C   UNK     0      16.155   2.976   2.353  0.00  0.00     0.051 C 
BRANCH  45  46
HETATM   46  C   UNK     0      16.941   2.662   1.132  0.00  0.00     0.114 C 
BRANCH  46  47
HETATM   47  C   UNK     0      18.358   2.475   1.556  0.00  0.00     0.139 C 
HETATM   48  O   UNK     0      18.978   3.454   1.996  0.00  0.00    -0.650 OA
BRANCH  47  49
HETATM   49  O   UNK     0      18.965   1.249   1.459  0.00  0.00    -0.776 OA
HETATM   50  H   UNK     0      18.633   0.433   1.987  0.00  0.00     0.167 HD
ENDBRANCH  47  49
ENDBRANCH  46  47
ENDBRANCH  45  46
ENDBRANCH  11  45
BRANCH  18  51
HETATM   51  C   UNK     0      18.051  -2.808  -1.069  0.00  0.00     0.051 C 
BRANCH  51  52
HETATM   52  C   UNK     0      17.090  -3.632  -1.913  0.00  0.00     0.114 C 
BRANCH  52  53
HETATM   53  C   UNK     0      16.697  -2.925  -3.148  0.00  0.00     0.139 C 
HETATM   54  O   UNK     0      17.457  -2.080  -3.648  0.00  0.00    -0.650 OA
BRANCH  53  55
HETATM   55  O   UNK     0      15.488  -3.205  -3.736  0.00  0.00    -0.776 OA
HETATM   56  H   UNK     0      14.593  -2.986  -3.365  0.00  0.00     0.167 HD
ENDBRANCH  53  55
ENDBRANCH  52  53
ENDBRANCH  51  52
ENDBRANCH  18  51
TORSDOF 16
ENDMDL
MODEL 15
REMARK VINA RESULT:      -7.9     27.654     30.763
REMARK  16 active torsions:
REMARK  status: ('A' for Active; 'I' for Inactive)
REMARK    1  A    between atoms: C_6  and  C_7 
REMARK    2  A    between atoms: C_7  and  C_8 
REMARK    3  A    between atoms: C_8  and  C_9 
REMARK    4  A    between atoms: C_9  and  O_11 
REMARK    5  A    between atoms: C_16  and  C_17 
REMARK    6  A    between atoms: C_17  and  C_18 
REMARK    7  A    between atoms: C_18  and  C_19 
REMARK    8  A    between atoms: C_19  and  O_21 
REMARK    9  A    between atoms: C_28  and  C_29 
REMARK   10  A    between atoms: C_29  and  C_30 
REMARK   11  A    between atoms: C_30  and  C_31 
REMARK   12  A    between atoms: C_31  and  O_33 
REMARK   13  A    between atoms: C_42  and  C_43 
REMARK   14  A    between atoms: C_43  and  C_44 
REMARK   15  A    between atoms: C_44  and  C_45 
REMARK   16  A    between atoms: C_45  and  O_47 
ROOT
HETATM    1  C   UNK     0      14.553  -7.616   9.355  0.00  0.00     0.051 C 
HETATM    2  C   UNK     0      15.450  -6.399   9.450  0.00  0.00    -0.031 A 
HETATM    3  C   UNK     0      16.784  -6.261   9.101  0.00  0.00     0.021 A 
HETATM    4  N   UNK     0      17.187  -5.000   9.388  0.00  0.00    -0.361 N 
HETATM    5  C   UNK     0      16.136  -4.330   9.905  0.00  0.00     0.022 A 
HETATM    6  C   UNK     0      15.034  -5.177   9.960  0.00  0.00    -0.027 A 
HETATM    7  C   UNK     0      16.025  -2.889  10.296  0.00  0.00     0.115 C 
HETATM    8  C   UNK     0      16.650  -1.877   9.353  0.00  0.00     0.021 A 
HETATM    9  N   UNK     0      16.714  -1.910   8.013  0.00  0.00    -0.361 N 
HETATM   10  C   UNK     0      17.442  -0.850   7.602  0.00  0.00     0.022 A 
HETATM   11  C   UNK     0      17.849  -0.108   8.707  0.00  0.00    -0.027 A 
HETATM   12  C   UNK     0      17.353  -0.749   9.813  0.00  0.00    -0.031 A 
HETATM   13  C   UNK     0      17.543  -0.296  11.244  0.00  0.00     0.051 C 
HETATM   14  C   UNK     0      17.825  -0.525   6.161  0.00  0.00     0.115 C 
HETATM   15  C   UNK     0      18.666  -1.599   5.490  0.00  0.00     0.021 A 
HETATM   16  N   UNK     0      18.347  -2.893   5.300  0.00  0.00    -0.361 N 
HETATM   17  C   UNK     0      19.381  -3.521   4.738  0.00  0.00     0.022 A 
HETATM   18  C   UNK     0      20.421  -2.591   4.544  0.00  0.00    -0.027 A 
HETATM   19  C   UNK     0      19.960  -1.390   5.018  0.00  0.00    -0.031 A 
HETATM   20  C   UNK     0      20.759  -0.100   4.968  0.00  0.00     0.051 C 
HETATM   21  C   UNK     0      19.558  -4.982   4.388  0.00  0.00     0.115 C 
HETATM   22  C   UNK     0      18.904  -5.999   5.294  0.00  0.00     0.022 A 
HETATM   23  N   UNK     0      18.821  -5.989   6.630  0.00  0.00    -0.361 N 
HETATM   24  C   UNK     0      18.028  -7.010   7.013  0.00  0.00     0.021 A 
HETATM   25  C   UNK     0      17.597  -7.700   5.896  0.00  0.00    -0.031 A 
HETATM   26  C   UNK     0      16.727  -8.937   5.817  0.00  0.00     0.051 C 
HETATM   27  C   UNK     0      18.145  -7.072   4.784  0.00  0.00    -0.027 A 
HETATM   28  C   UNK     0      17.563  -7.350   8.419  0.00  0.00     0.115 C 
HETATM   29  H   UNK     0      18.221  -4.604   9.261  0.00  0.00     0.165 HD
HETATM   30  H   UNK     0      16.205  -2.653   7.352  0.00  0.00     0.165 HD
HETATM   31  H   UNK     0      17.353  -3.362   5.523  0.00  0.00     0.165 HD
HETATM   32  H   UNK     0      19.358  -5.287   7.320  0.00  0.00     0.165 HD
ENDROOT
BRANCH   6  33
HETATM   33  C   UNK     0      13.634  -4.916  10.456  0.00  0.00     0.051 C 
BRANCH  33  34
HETATM   34  C   UNK     0      13.343  -3.434  10.481  0.00  0.00     0.114 C 
BRANCH  34  35
HETATM   35  C   UNK     0      11.916  -3.267  10.883  0.00  0.00     0.139 C 
HETATM   36  O   UNK     0      11.307  -2.186  10.634  0.00  0.00    -0.650 OA
BRANCH  35  37
HETATM   37  O   UNK     0      11.198  -4.264  11.532  0.00  0.00    -0.776 OA
HETATM   38  H   UNK     0      10.228  -4.441  11.330  0.00  0.00     0.167 HD
ENDBRANCH  35  37
ENDBRANCH  34  35
ENDBRANCH  33  34
ENDBRANCH   6  33
BRANCH  27  39
HETATM   39  C   UNK     0      17.962  -7.577   3.396  0.00  0.00     0.051 C 
BRANCH  39  40
HETATM   40  C   UNK     0      16.776  -7.150   2.653  0.00  0.00     0.114 C 
BRANCH  40  41
HETATM   41  C   UNK     0      15.549  -7.914   2.653  0.00  0.00     0.139 C 
HETATM   42  O   UNK     0      14.694  -7.833   3.545  0.00  0.00    -0.650 OA
BRANCH  41  43
HETATM   43  O   UNK     0      15.295  -8.813   1.579  0.00  0.00    -0.776 OA
HETATM   44  H   UNK     0      16.096  -8.995   0.986  0.00  0.00     0.167 HD
ENDBRANCH  41  43
ENDBRANCH  40  41
ENDBRANCH  39  40
ENDBRANCH  27  39
BRANCH  11  45
HETATM   45  C   UNK     0      18.667   1.155   8.743  0.00  0.00     0.051 C 
BRANCH  45  46
HETATM   46  C   UNK     0      20.132   0.926   8.831  0.00  0.00     0.114 C 
BRANCH  46  47
HETATM   47  C   UNK     0      20.601   1.551  10.100  0.00  0.00     0.139 C 
HETATM   48  O   UNK     0      19.895   2.420  10.629  0.00  0.00    -0.650 OA
BRANCH  47  49
HETATM   49  O   UNK     0      21.791   1.174  10.671  0.00  0.00    -0.776 OA
HETATM   50  H   UNK     0      22.395   1.842  11.164  0.00  0.00     0.167 HD
ENDBRANCH  47  49
ENDBRANCH  46  47
ENDBRANCH  45  46
ENDBRANCH  11  45
BRANCH  18  51
HETATM   51  C   UNK     0      21.773  -2.828   3.921  0.00  0.00     0.051 C 
BRANCH  51  52
HETATM   52  C   UNK     0      22.788  -2.703   5.047  0.00  0.00     0.114 C 
BRANCH  52  53
HETATM   53  C   UNK     0      24.064  -2.129   4.576  0.00  0.00     0.139 C 
HETATM   54  O   UNK     0      24.705  -1.358   5.306  0.00  0.00    -0.650 OA
BRANCH  53  55
HETATM   55  O   UNK     0      24.533  -2.451   3.325  0.00  0.00    -0.776 OA
HETATM   56  H   UNK     0      24.120  -3.098   2.695  0.00  0.00     0.167 HD
ENDBRANCH  53  55
ENDBRANCH  52  53
ENDBRANCH  51  52
ENDBRANCH  18  51
TORSDOF 16
ENDMDL
MODEL 16
REMARK VINA RESULT:      -7.9     24.183     28.173
REMARK  16 active torsions:
REMARK  status: ('A' for Active; 'I' for Inactive)
REMARK    1  A    between atoms: C_6  and  C_7 
REMARK    2  A    between atoms: C_7  and  C_8 
REMARK    3  A    between atoms: C_8  and  C_9 
REMARK    4  A    between atoms: C_9  and  O_11 
REMARK    5  A    between atoms: C_16  and  C_17 
REMARK    6  A    between atoms: C_17  and  C_18 
REMARK    7  A    between atoms: C_18  and  C_19 
REMARK    8  A    between atoms: C_19  and  O_21 
REMARK    9  A    between atoms: C_28  and  C_29 
REMARK   10  A    between atoms: C_29  and  C_30 
REMARK   11  A    between atoms: C_30  and  C_31 
REMARK   12  A    between atoms: C_31  and  O_33 
REMARK   13  A    between atoms: C_42  and  C_43 
REMARK   14  A    between atoms: C_43  and  C_44 
REMARK   15  A    between atoms: C_44  and  C_45 
REMARK   16  A    between atoms: C_45  and  O_47 
ROOT
HETATM    1  C   UNK     0      -9.066  18.633  14.356  0.00  0.00     0.051 C 
HETATM    2  C   UNK     0      -8.665  20.022  13.903  0.00  0.00    -0.031 A 
HETATM    3  C   UNK     0      -7.948  20.408  12.782  0.00  0.00     0.021 A 
HETATM    4  N   UNK     0      -7.797  21.754  12.797  0.00  0.00    -0.361 N 
HETATM    5  C   UNK     0      -8.409  22.234  13.899  0.00  0.00     0.022 A 
HETATM    6  C   UNK     0      -8.960  21.177  14.615  0.00  0.00    -0.027 A 
HETATM    7  C   UNK     0      -8.613  23.652  14.333  0.00  0.00     0.115 C 
HETATM    8  C   UNK     0      -9.015  24.644  13.255  0.00  0.00     0.021 A 
HETATM    9  N   UNK     0      -9.808  24.446  12.191  0.00  0.00    -0.361 N 
HETATM   10  C   UNK     0      -9.811  25.578  11.454  0.00  0.00     0.022 A 
HETATM   11  C   UNK     0      -9.005  26.533  12.066  0.00  0.00    -0.027 A 
HETATM   12  C   UNK     0      -8.501  25.952  13.201  0.00  0.00    -0.031 A 
HETATM   13  C   UNK     0      -7.573  26.623  14.189  0.00  0.00     0.051 C 
HETATM   14  C   UNK     0     -10.527  25.785  10.123  0.00  0.00     0.115 C 
HETATM   15  C   UNK     0     -10.062  24.847   9.021  0.00  0.00     0.021 A 
HETATM   16  N   UNK     0     -10.082  23.501   9.025  0.00  0.00    -0.361 N 
HETATM   17  C   UNK     0      -9.521  23.051   7.900  0.00  0.00     0.022 A 
HETATM   18  C   UNK     0      -9.125  24.156   7.122  0.00  0.00    -0.027 A 
HETATM   19  C   UNK     0      -9.470  25.275   7.834  0.00  0.00    -0.031 A 
HETATM   20  C   UNK     0      -9.251  26.693   7.338  0.00  0.00     0.051 C 
HETATM   21  C   UNK     0      -9.238  21.634   7.455  0.00  0.00     0.115 C 
HETATM   22  C   UNK     0      -8.879  20.626   8.522  0.00  0.00     0.022 A 
HETATM   23  N   UNK     0      -8.096  20.796   9.595  0.00  0.00    -0.361 N 
HETATM   24  C   UNK     0      -8.170  19.684  10.354  0.00  0.00     0.021 A 
HETATM   25  C   UNK     0      -9.013  18.772   9.750  0.00  0.00    -0.031 A 
HETATM   26  C   UNK     0      -9.380  17.372  10.197  0.00  0.00     0.051 C 
HETATM   27  C   UNK     0      -9.480  19.352   8.576  0.00  0.00    -0.027 A 
HETATM   28  C   UNK     0      -7.531  19.441  11.711  0.00  0.00     0.115 C 
HETATM   29  H   UNK     0      -7.224  22.351  12.049  0.00  0.00     0.165 HD
HETATM   30  H   UNK     0     -10.407  23.526  11.982  0.00  0.00     0.165 HD
HETATM   31  H   UNK     0     -10.545  22.854   9.815  0.00  0.00     0.165 HD
HETATM   32  H   UNK     0      -7.448  21.687   9.805  0.00  0.00     0.165 HD
ENDROOT
BRANCH   6  33
HETATM   33  C   UNK     0      -9.734  21.181  15.909  0.00  0.00     0.051 C 
BRANCH  33  34
HETATM   34  C   UNK     0      -8.811  20.976  17.086  0.00  0.00     0.114 C 
BRANCH  34  35
HETATM   35  C   UNK     0      -8.749  22.264  17.835  0.00  0.00     0.139 C 
HETATM   36  O   UNK     0      -9.726  22.633  18.549  0.00  0.00    -0.650 OA
BRANCH  35  37
HETATM   37  O   UNK     0      -7.642  23.103  17.792  0.00  0.00    -0.776 OA
HETATM   38  H   UNK     0      -6.829  22.945  18.366  0.00  0.00     0.167 HD
ENDBRANCH  35  37
ENDBRANCH  34  35
ENDBRANCH  33  34
ENDBRANCH   6  33
BRANCH  27  39
HETATM   39  C   UNK     0     -10.363  18.638   7.614  0.00  0.00     0.051 C 
BRANCH  39  40
HETATM   40  C   UNK     0     -11.623  19.270   7.228  0.00  0.00     0.114 C 
BRANCH  40  41
HETATM   41  C   UNK     0     -12.509  19.879   8.195  0.00  0.00     0.139 C 
HETATM   42  O   UNK     0     -12.417  21.060   8.558  0.00  0.00    -0.650 OA
BRANCH  41  43
HETATM   43  O   UNK     0     -13.547  19.094   8.772  0.00  0.00    -0.776 OA
HETATM   44  H   UNK     0     -14.088  19.572   9.483  0.00  0.00     0.167 HD
ENDBRANCH  41  43
ENDBRANCH  40  41
ENDBRANCH  39  40
ENDBRANCH  27  39
BRANCH  11  45
HETATM   45  C   UNK     0      -8.710  27.941  11.622  0.00  0.00     0.051 C 
BRANCH  45  46
HETATM   46  C   UNK     0      -7.612  28.045  10.627  0.00  0.00     0.114 C 
BRANCH  46  47
HETATM   47  C   UNK     0      -6.734  29.172  11.055  0.00  0.00     0.139 C 
HETATM   48  O   UNK     0      -5.855  28.951  11.899  0.00  0.00    -0.650 OA
BRANCH  47  49
HETATM   49  O   UNK     0      -6.896  30.428  10.526  0.00  0.00    -0.776 OA
HETATM   50  H   UNK     0      -6.940  31.266  11.117  0.00  0.00     0.167 HD
ENDBRANCH  47  49
ENDBRANCH  46  47
ENDBRANCH  45  46
ENDBRANCH  11  45
BRANCH  18  51
HETATM   51  C   UNK     0      -8.472  24.147   5.764  0.00  0.00     0.051 C 
BRANCH  51  52
HETATM   52  C   UNK     0      -9.603  24.114   4.748  0.00  0.00     0.114 C 
BRANCH  52  53
HETATM   53  C   UNK     0      -9.185  23.486   3.479  0.00  0.00     0.139 C 
HETATM   54  O   UNK     0      -9.364  22.271   3.299  0.00  0.00    -0.650 OA
BRANCH  53  55
HETATM   55  O   UNK     0      -8.593  24.252   2.505  0.00  0.00    -0.776 OA
HETATM   56  H   UNK     0      -8.924  25.125   2.167  0.00  0.00     0.167 HD
ENDBRANCH  53  55
ENDBRANCH  52  53
ENDBRANCH  51  52
ENDBRANCH  18  51
TORSDOF 16
ENDMDL
MODEL 17
REMARK VINA RESULT:      -7.8     26.429     29.097
REMARK  16 active torsions:
REMARK  status: ('A' for Active; 'I' for Inactive)
REMARK    1  A    between atoms: C_6  and  C_7 
REMARK    2  A    between atoms: C_7  and  C_8 
REMARK    3  A    between atoms: C_8  and  C_9 
REMARK    4  A    between atoms: C_9  and  O_11 
REMARK    5  A    between atoms: C_16  and  C_17 
REMARK    6  A    between atoms: C_17  and  C_18 
REMARK    7  A    between atoms: C_18  and  C_19 
REMARK    8  A    between atoms: C_19  and  O_21 
REMARK    9  A    between atoms: C_28  and  C_29 
REMARK   10  A    between atoms: C_29  and  C_30 
REMARK   11  A    between atoms: C_30  and  C_31 
REMARK   12  A    between atoms: C_31  and  O_33 
REMARK   13  A    between atoms: C_42  and  C_43 
REMARK   14  A    between atoms: C_43  and  C_44 
REMARK   15  A    between atoms: C_44  and  C_45 
REMARK   16  A    between atoms: C_45  and  O_47 
ROOT
HETATM    1  C   UNK     0      18.747  -7.386   6.860  0.00  0.00     0.051 C 
HETATM    2  C   UNK     0      19.531  -6.161   7.282  0.00  0.00    -0.031 A 
HETATM    3  C   UNK     0      20.100  -5.168   6.500  0.00  0.00     0.021 A 
HETATM    4  N   UNK     0      20.735  -4.282   7.305  0.00  0.00    -0.361 N 
HETATM    5  C   UNK     0      20.576  -4.685   8.582  0.00  0.00     0.022 A 
HETATM    6  C   UNK     0      19.830  -5.859   8.604  0.00  0.00    -0.027 A 
HETATM    7  C   UNK     0      20.999  -4.014   9.852  0.00  0.00     0.115 C 
HETATM    8  C   UNK     0      20.783  -2.513   9.934  0.00  0.00     0.021 A 
HETATM    9  N   UNK     0      19.777  -1.784   9.426  0.00  0.00    -0.361 N 
HETATM   10  C   UNK     0      20.042  -0.482   9.662  0.00  0.00     0.022 A 
HETATM   11  C   UNK     0      21.248  -0.369  10.348  0.00  0.00    -0.027 A 
HETATM   12  C   UNK     0      21.720  -1.645  10.523  0.00  0.00    -0.031 A 
HETATM   13  C   UNK     0      23.007  -2.013  11.226  0.00  0.00     0.051 C 
HETATM   14  C   UNK     0      19.201   0.706   9.205  0.00  0.00     0.115 C 
HETATM   15  C   UNK     0      19.058   0.815   7.695  0.00  0.00     0.021 A 
HETATM   16  N   UNK     0      18.545  -0.099   6.850  0.00  0.00    -0.361 N 
HETATM   17  C   UNK     0      18.664   0.347   5.598  0.00  0.00     0.022 A 
HETATM   18  C   UNK     0      19.275   1.616   5.628  0.00  0.00    -0.027 A 
HETATM   19  C   UNK     0      19.515   1.899   6.947  0.00  0.00    -0.031 A 
HETATM   20  C   UNK     0      20.136   3.196   7.433  0.00  0.00     0.051 C 
HETATM   21  C   UNK     0      18.312  -0.325   4.290  0.00  0.00     0.115 C 
HETATM   22  C   UNK     0      18.480  -1.824   4.208  0.00  0.00     0.022 A 
HETATM   23  N   UNK     0      19.469  -2.577   4.707  0.00  0.00    -0.361 N 
HETATM   24  C   UNK     0      19.146  -3.874   4.531  0.00  0.00     0.021 A 
HETATM   25  C   UNK     0      17.923  -3.958   3.893  0.00  0.00    -0.031 A 
HETATM   26  C   UNK     0      17.165  -5.190   3.445  0.00  0.00     0.051 C 
HETATM   27  C   UNK     0      17.477  -2.659   3.675  0.00  0.00    -0.027 A 
HETATM   28  C   UNK     0      19.908  -5.096   5.012  0.00  0.00     0.115 C 
HETATM   29  H   UNK     0      21.324  -3.401   6.961  0.00  0.00     0.165 HD
HETATM   30  H   UNK     0      18.853  -2.189   8.946  0.00  0.00     0.165 HD
HETATM   31  H   UNK     0      18.046  -1.058   7.147  0.00  0.00     0.165 HD
HETATM   32  H   UNK     0      20.427  -2.198   5.151  0.00  0.00     0.165 HD
ENDROOT
BRANCH   6  33
HETATM   33  C   UNK     0      19.388  -6.706   9.771  0.00  0.00     0.051 C 
BRANCH  33  34
HETATM   34  C   UNK     0      18.278  -6.025  10.536  0.00  0.00     0.114 C 
BRANCH  34  35
HETATM   35  C   UNK     0      17.145  -6.990  10.632  0.00  0.00     0.139 C 
HETATM   36  O   UNK     0      17.204  -8.103  10.033  0.00  0.00    -0.650 OA
BRANCH  35  37
HETATM   37  O   UNK     0      15.996  -6.727  11.368  0.00  0.00    -0.776 OA
HETATM   38  H   UNK     0      15.137  -7.230  11.217  0.00  0.00     0.167 HD
ENDBRANCH  35  37
ENDBRANCH  34  35
ENDBRANCH  33  34
ENDBRANCH   6  33
BRANCH  27  39
HETATM   39  C   UNK     0      16.220  -2.346   2.943  0.00  0.00     0.051 C 
BRANCH  39  40
HETATM   40  C   UNK     0      15.109  -1.759   3.692  0.00  0.00     0.114 C 
BRANCH  40  41
HETATM   41  C   UNK     0      14.872  -0.334   3.730  0.00  0.00     0.139 C 
HETATM   42  O   UNK     0      14.405   0.256   4.714  0.00  0.00    -0.650 OA
BRANCH  41  43
HETATM   43  O   UNK     0      15.186   0.450   2.583  0.00  0.00    -0.776 OA
HETATM   44  H   UNK     0      15.272   1.442   2.765  0.00  0.00     0.167 HD
ENDBRANCH  41  43
ENDBRANCH  40  41
ENDBRANCH  39  40
ENDBRANCH  27  39
BRANCH  11  45
HETATM   45  C   UNK     0      21.944   0.875  10.830  0.00  0.00     0.051 C 
BRANCH  45  46
HETATM   46  C   UNK     0      21.226   1.588  11.917  0.00  0.00     0.114 C 
BRANCH  46  47
HETATM   47  C   UNK     0      21.531   0.875  13.191  0.00  0.00     0.139 C 
HETATM   48  O   UNK     0      20.697   0.076  13.637  0.00  0.00    -0.650 OA
BRANCH  47  49
HETATM   49  O   UNK     0      22.710   1.100  13.856  0.00  0.00    -0.776 OA
HETATM   50  H   UNK     0      23.003   0.525  14.655  0.00  0.00     0.167 HD
ENDBRANCH  47  49
ENDBRANCH  46  47
ENDBRANCH  45  46
ENDBRANCH  11  45
BRANCH  18  51
HETATM   51  C   UNK     0      19.592   2.520   4.465  0.00  0.00     0.051 C 
BRANCH  51  52
HETATM   52  C   UNK     0      18.458   3.531   4.389  0.00  0.00     0.114 C 
BRANCH  52  53
HETATM   53  C   UNK     0      17.266   2.971   3.724  0.00  0.00     0.139 C 
HETATM   54  O   UNK     0      17.310   2.665   2.522  0.00  0.00    -0.650 OA
BRANCH  53  55
HETATM   55  O   UNK     0      16.108   2.793   4.442  0.00  0.00    -0.776 OA
HETATM   56  H   UNK     0      15.629   1.934   4.574  0.00  0.00     0.167 HD
ENDBRANCH  53  55
ENDBRANCH  52  53
ENDBRANCH  51  52
ENDBRANCH  18  51
TORSDOF 16
ENDMDL
MODEL 18
REMARK VINA RESULT:      -7.7     26.279     29.233
REMARK  16 active torsions:
REMARK  status: ('A' for Active; 'I' for Inactive)
REMARK    1  A    between atoms: C_6  and  C_7 
REMARK    2  A    between atoms: C_7  and  C_8 
REMARK    3  A    between atoms: C_8  and  C_9 
REMARK    4  A    between atoms: C_9  and  O_11 
REMARK    5  A    between atoms: C_16  and  C_17 
REMARK    6  A    between atoms: C_17  and  C_18 
REMARK    7  A    between atoms: C_18  and  C_19 
REMARK    8  A    between atoms: C_19  and  O_21 
REMARK    9  A    between atoms: C_28  and  C_29 
REMARK   10  A    between atoms: C_29  and  C_30 
REMARK   11  A    between atoms: C_30  and  C_31 
REMARK   12  A    between atoms: C_31  and  O_33 
REMARK   13  A    between atoms: C_42  and  C_43 
REMARK   14  A    between atoms: C_43  and  C_44 
REMARK   15  A    between atoms: C_44  and  C_45 
REMARK   16  A    between atoms: C_45  and  O_47 
ROOT
HETATM    1  C   UNK     0      18.436  -7.461   6.029  0.00  0.00     0.051 C 
HETATM    2  C   UNK     0      19.239  -6.305   6.589  0.00  0.00    -0.031 A 
HETATM    3  C   UNK     0      20.004  -5.361   5.923  0.00  0.00     0.021 A 
HETATM    4  N   UNK     0      20.571  -4.531   6.831  0.00  0.00    -0.361 N 
HETATM    5  C   UNK     0      20.177  -4.921   8.061  0.00  0.00     0.022 A 
HETATM    6  C   UNK     0      19.345  -6.030   7.946  0.00  0.00    -0.027 A 
HETATM    7  C   UNK     0      20.443  -4.288   9.391  0.00  0.00     0.115 C 
HETATM    8  C   UNK     0      20.339  -2.775   9.458  0.00  0.00     0.021 A 
HETATM    9  N   UNK     0      19.489  -1.965   8.807  0.00  0.00    -0.361 N 
HETATM   10  C   UNK     0      19.818  -0.689   9.100  0.00  0.00     0.022 A 
HETATM   11  C   UNK     0      20.903  -0.677   9.972  0.00  0.00    -0.027 A 
HETATM   12  C   UNK     0      21.236  -1.987  10.202  0.00  0.00    -0.031 A 
HETATM   13  C   UNK     0      22.359  -2.460  11.097  0.00  0.00     0.051 C 
HETATM   14  C   UNK     0      19.160   0.565   8.531  0.00  0.00     0.115 C 
HETATM   15  C   UNK     0      19.272   0.686   7.019  0.00  0.00     0.021 A 
HETATM   16  N   UNK     0      18.829  -0.182   6.091  0.00  0.00    -0.361 N 
HETATM   17  C   UNK     0      19.183   0.254   4.879  0.00  0.00     0.022 A 
HETATM   18  C   UNK     0      19.882   1.469   5.025  0.00  0.00    -0.027 A 
HETATM   19  C   UNK     0      19.929   1.729   6.370  0.00  0.00    -0.031 A 
HETATM   20  C   UNK     0      20.566   2.971   6.967  0.00  0.00     0.051 C 
HETATM   21  C   UNK     0      18.992  -0.386   3.523  0.00  0.00     0.115 C 
HETATM   22  C   UNK     0      19.050  -1.894   3.448  0.00  0.00     0.022 A 
HETATM   23  N   UNK     0      19.882  -2.725   4.089  0.00  0.00    -0.361 N 
HETATM   24  C   UNK     0      19.487  -3.991   3.844  0.00  0.00     0.021 A 
HETATM   25  C   UNK     0      18.380  -3.974   3.017  0.00  0.00    -0.031 A 
HETATM   26  C   UNK     0      17.607  -5.140   2.436  0.00  0.00     0.051 C 
HETATM   27  C   UNK     0      18.082  -2.643   2.750  0.00  0.00    -0.027 A 
HETATM   28  C   UNK     0      20.061  -5.272   4.424  0.00  0.00     0.115 C 
HETATM   29  H   UNK     0      21.277  -3.701   6.599  0.00  0.00     0.165 HD
HETATM   30  H   UNK     0      18.625  -2.292   8.178  0.00  0.00     0.165 HD
HETATM   31  H   UNK     0      18.212  -1.097   6.290  0.00  0.00     0.165 HD
HETATM   32  H   UNK     0      20.783  -2.427   4.685  0.00  0.00     0.165 HD
ENDROOT
BRANCH   6  33
HETATM   33  C   UNK     0      18.654  -6.838   9.015  0.00  0.00     0.051 C 
BRANCH  33  34
HETATM   34  C   UNK     0      17.283  -6.277   9.308  0.00  0.00     0.114 C 
BRANCH  34  35
HETATM   35  C   UNK     0      17.052  -6.405  10.776  0.00  0.00     0.139 C 
HETATM   36  O   UNK     0      17.141  -7.535  11.339  0.00  0.00    -0.650 OA
BRANCH  35  37
HETATM   37  O   UNK     0      16.738  -5.318  11.582  0.00  0.00    -0.776 OA
HETATM   38  H   UNK     0      17.423  -4.876  12.174  0.00  0.00     0.167 HD
ENDBRANCH  35  37
ENDBRANCH  34  35
ENDBRANCH  33  34
ENDBRANCH   6  33
BRANCH  27  39
HETATM   39  C   UNK     0      16.988  -2.226   1.831  0.00  0.00     0.051 C 
BRANCH  39  40
HETATM   40  C   UNK     0      15.733  -1.753   2.414  0.00  0.00     0.114 C 
BRANCH  40  41
HETATM   41  C   UNK     0      15.258  -0.401   2.227  0.00  0.00     0.139 C 
HETATM   42  O   UNK     0      14.544  -0.053   1.276  0.00  0.00    -0.650 OA
BRANCH  41  43
HETATM   43  O   UNK     0      15.620   0.597   3.176  0.00  0.00    -0.776 OA
HETATM   44  H   UNK     0      14.840   0.984   3.694  0.00  0.00     0.167 HD
ENDBRANCH  41  43
ENDBRANCH  40  41
ENDBRANCH  39  40
ENDBRANCH  27  39
BRANCH  11  45
HETATM   45  C   UNK     0      21.611   0.506  10.577  0.00  0.00     0.051 C 
BRANCH  45  46
HETATM   46  C   UNK     0      20.880   1.137  11.705  0.00  0.00     0.114 C 
BRANCH  46  47
HETATM   47  C   UNK     0      21.700   0.929  12.934  0.00  0.00     0.139 C 
HETATM   48  O   UNK     0      21.175   1.135  14.037  0.00  0.00    -0.650 OA
BRANCH  47  49
HETATM   49  O   UNK     0      23.007   0.521  12.846  0.00  0.00    -0.776 OA
HETATM   50  H   UNK     0      23.266  -0.403  12.481  0.00  0.00     0.167 HD
ENDBRANCH  47  49
ENDBRANCH  46  47
ENDBRANCH  45  46
ENDBRANCH  11  45
BRANCH  18  51
HETATM   51  C   UNK     0      20.454   2.344   3.941  0.00  0.00     0.051 C 
BRANCH  51  52
HETATM   52  C   UNK     0      21.943   2.036   3.886  0.00  0.00     0.114 C 
BRANCH  52  53
HETATM   53  C   UNK     0      22.245   0.946   2.939  0.00  0.00     0.139 C 
HETATM   54  O   UNK     0      22.656  -0.147   3.360  0.00  0.00    -0.650 OA
BRANCH  53  55
HETATM   55  O   UNK     0      22.071   1.149   1.591  0.00  0.00    -0.776 OA
HETATM   56  H   UNK     0      21.941   0.443   0.906  0.00  0.00     0.167 HD
ENDBRANCH  53  55
ENDBRANCH  52  53
ENDBRANCH  51  52
ENDBRANCH  18  51
TORSDOF 16
ENDMDL
MODEL 19
REMARK VINA RESULT:      -7.7     12.772     16.294
REMARK  16 active torsions:
REMARK  status: ('A' for Active; 'I' for Inactive)
REMARK    1  A    between atoms: C_6  and  C_7 
REMARK    2  A    between atoms: C_7  and  C_8 
REMARK    3  A    between atoms: C_8  and  C_9 
REMARK    4  A    between atoms: C_9  and  O_11 
REMARK    5  A    between atoms: C_16  and  C_17 
REMARK    6  A    between atoms: C_17  and  C_18 
REMARK    7  A    between atoms: C_18  and  C_19 
REMARK    8  A    between atoms: C_19  and  O_21 
REMARK    9  A    between atoms: C_28  and  C_29 
REMARK   10  A    between atoms: C_29  and  C_30 
REMARK   11  A    between atoms: C_30  and  C_31 
REMARK   12  A    between atoms: C_31  and  O_33 
REMARK   13  A    between atoms: C_42  and  C_43 
REMARK   14  A    between atoms: C_43  and  C_44 
REMARK   15  A    between atoms: C_44  and  C_45 
REMARK   16  A    between atoms: C_45  and  O_47 
ROOT
HETATM    1  C   UNK     0      21.488  13.855  -0.764  0.00  0.00     0.051 C 
HETATM    2  C   UNK     0      22.240  14.549   0.354  0.00  0.00    -0.031 A 
HETATM    3  C   UNK     0      23.552  14.996   0.387  0.00  0.00     0.021 A 
HETATM    4  N   UNK     0      23.805  15.528   1.606  0.00  0.00    -0.361 N 
HETATM    5  C   UNK     0      22.682  15.438   2.347  0.00  0.00     0.022 A 
HETATM    6  C   UNK     0      21.684  14.828   1.595  0.00  0.00    -0.027 A 
HETATM    7  C   UNK     0      22.404  15.960   3.722  0.00  0.00     0.115 C 
HETATM    8  C   UNK     0      22.915  17.355   4.038  0.00  0.00     0.021 A 
HETATM    9  N   UNK     0      22.990  18.421   3.227  0.00  0.00    -0.361 N 
HETATM   10  C   UNK     0      23.594  19.421   3.904  0.00  0.00     0.022 A 
HETATM   11  C   UNK     0      23.907  18.990   5.190  0.00  0.00    -0.027 A 
HETATM   12  C   UNK     0      23.482  17.689   5.281  0.00  0.00    -0.031 A 
HETATM   13  C   UNK     0      23.610  16.812   6.506  0.00  0.00     0.051 C 
HETATM   14  C   UNK     0      23.946  20.799   3.352  0.00  0.00     0.115 C 
HETATM   15  C   UNK     0      24.908  20.764   2.175  0.00  0.00     0.021 A 
HETATM   16  N   UNK     0      24.740  20.139   0.995  0.00  0.00    -0.361 N 
HETATM   17  C   UNK     0      25.843  20.289   0.258  0.00  0.00     0.022 A 
HETATM   18  C   UNK     0      26.771  21.057   0.990  0.00  0.00    -0.027 A 
HETATM   19  C   UNK     0      26.173  21.349   2.188  0.00  0.00    -0.031 A 
HETATM   20  C   UNK     0      26.819  22.196   3.269  0.00  0.00     0.051 C 
HETATM   21  C   UNK     0      26.188  19.725  -1.102  0.00  0.00     0.115 C 
HETATM   22  C   UNK     0      25.649  18.356  -1.446  0.00  0.00     0.022 A 
HETATM   23  N   UNK     0      25.558  17.278  -0.658  0.00  0.00    -0.361 N 
HETATM   24  C   UNK     0      24.885  16.320  -1.326  0.00  0.00     0.021 A 
HETATM   25  C   UNK     0      24.543  16.790  -2.580  0.00  0.00    -0.031 A 
HETATM   26  C   UNK     0      23.820  16.074  -3.702  0.00  0.00     0.051 C 
HETATM   27  C   UNK     0      25.022  18.091  -2.680  0.00  0.00    -0.027 A 
HETATM   28  C   UNK     0      24.454  14.957  -0.814  0.00  0.00     0.115 C 
HETATM   29  H   UNK     0      24.788  15.928   1.947  0.00  0.00     0.165 HD
HETATM   30  H   UNK     0      22.574  18.487   2.192  0.00  0.00     0.165 HD
HETATM   31  H   UNK     0      23.806  19.621   0.655  0.00  0.00     0.165 HD
HETATM   32  H   UNK     0      26.007  17.167   0.364  0.00  0.00     0.165 HD
ENDROOT
BRANCH   6  33
HETATM   33  C   UNK     0      20.260  14.492   1.963  0.00  0.00     0.051 C 
BRANCH  33  34
HETATM   34  C   UNK     0      19.369  15.701   1.811  0.00  0.00     0.114 C 
BRANCH  34  35
HETATM   35  C   UNK     0      18.835  16.036   3.163  0.00  0.00     0.139 C 
HETATM   36  O   UNK     0      18.139  15.192   3.799  0.00  0.00    -0.650 OA
BRANCH  35  37
HETATM   37  O   UNK     0      19.072  17.258   3.780  0.00  0.00    -0.776 OA
HETATM   38  H   UNK     0      18.500  17.592   4.539  0.00  0.00     0.167 HD
ENDBRANCH  35  37
ENDBRANCH  34  35
ENDBRANCH  33  34
ENDBRANCH   6  33
BRANCH  27  39
HETATM   39  C   UNK     0      24.905  18.904  -3.921  0.00  0.00     0.051 C 
BRANCH  39  40
HETATM   40  C   UNK     0      23.851  19.916  -3.991  0.00  0.00     0.114 C 
BRANCH  40  41
HETATM   41  C   UNK     0      24.124  21.326  -3.824  0.00  0.00     0.139 C 
HETATM   42  O   UNK     0      25.187  21.767  -3.365  0.00  0.00    -0.650 OA
BRANCH  41  43
HETATM   43  O   UNK     0      23.130  22.272  -4.202  0.00  0.00    -0.776 OA
HETATM   44  H   UNK     0      22.226  21.867  -4.416  0.00  0.00     0.167 HD
ENDBRANCH  41  43
ENDBRANCH  40  41
ENDBRANCH  39  40
ENDBRANCH  27  39
BRANCH  11  45
HETATM   45  C   UNK     0      24.575  19.752   6.302  0.00  0.00     0.051 C 
BRANCH  45  46
HETATM   46  C   UNK     0      23.651  20.184   7.381  0.00  0.00     0.114 C 
BRANCH  46  47
HETATM   47  C   UNK     0      22.878  21.349   6.861  0.00  0.00     0.139 C 
HETATM   48  O   UNK     0      21.645  21.256   6.786  0.00  0.00    -0.650 OA
BRANCH  47  49
HETATM   49  O   UNK     0      23.517  22.499   6.472  0.00  0.00    -0.776 OA
HETATM   50  H   UNK     0      23.003  23.324   6.143  0.00  0.00     0.167 HD
ENDBRANCH  47  49
ENDBRANCH  46  47
ENDBRANCH  45  46
ENDBRANCH  11  45
BRANCH  18  51
HETATM   51  C   UNK     0      28.144  21.505   0.562  0.00  0.00     0.051 C 
BRANCH  51  52
HETATM   52  C   UNK     0      28.020  22.980   0.211  0.00  0.00     0.114 C 
BRANCH  52  53
HETATM   53  C   UNK     0      28.428  23.250  -1.182  0.00  0.00     0.139 C 
HETATM   54  O   UNK     0      29.470  23.885  -1.412  0.00  0.00    -0.650 OA
BRANCH  53  55
HETATM   55  O   UNK     0      27.649  22.797  -2.218  0.00  0.00    -0.776 OA
HETATM   56  H   UNK     0      27.950  22.644  -3.152  0.00  0.00     0.167 HD
ENDBRANCH  53  55
ENDBRANCH  52  53
ENDBRANCH  51  52
ENDBRANCH  18  51
TORSDOF 16
ENDMDL
MODEL 20
REMARK VINA RESULT:      -7.6     11.910     15.818
REMARK  16 active torsions:
REMARK  status: ('A' for Active; 'I' for Inactive)
REMARK    1  A    between atoms: C_6  and  C_7 
REMARK    2  A    between atoms: C_7  and  C_8 
REMARK    3  A    between atoms: C_8  and  C_9 
REMARK    4  A    between atoms: C_9  and  O_11 
REMARK    5  A    between atoms: C_16  and  C_17 
REMARK    6  A    between atoms: C_17  and  C_18 
REMARK    7  A    between atoms: C_18  and  C_19 
REMARK    8  A    between atoms: C_19  and  O_21 
REMARK    9  A    between atoms: C_28  and  C_29 
REMARK   10  A    between atoms: C_29  and  C_30 
REMARK   11  A    between atoms: C_30  and  C_31 
REMARK   12  A    between atoms: C_31  and  O_33 
REMARK   13  A    between atoms: C_42  and  C_43 
REMARK   14  A    between atoms: C_43  and  C_44 
REMARK   15  A    between atoms: C_44  and  C_45 
REMARK   16  A    between atoms: C_45  and  O_47 
ROOT
HETATM    1  C   UNK     0       8.368   6.556 -10.455  0.00  0.00     0.051 C 
HETATM    2  C   UNK     0       9.026   7.309 -11.593  0.00  0.00    -0.031 A 
HETATM    3  C   UNK     0       9.444   8.629 -11.649  0.00  0.00     0.021 A 
HETATM    4  N   UNK     0       9.950   8.880 -12.880  0.00  0.00    -0.361 N 
HETATM    5  C   UNK     0       9.872   7.746 -13.606  0.00  0.00     0.022 A 
HETATM    6  C   UNK     0       9.296   6.744 -12.833  0.00  0.00    -0.027 A 
HETATM    7  C   UNK     0      10.376   7.463 -14.987  0.00  0.00     0.115 C 
HETATM    8  C   UNK     0      11.754   8.000 -15.333  0.00  0.00     0.021 A 
HETATM    9  N   UNK     0      12.832   8.108 -14.541  0.00  0.00    -0.361 N 
HETATM   10  C   UNK     0      13.807   8.725 -15.242  0.00  0.00     0.022 A 
HETATM   11  C   UNK     0      13.347   9.013 -16.524  0.00  0.00    -0.027 A 
HETATM   12  C   UNK     0      12.055   8.559 -16.588  0.00  0.00    -0.031 A 
HETATM   13  C   UNK     0      11.154   8.653 -17.799  0.00  0.00     0.051 C 
HETATM   14  C   UNK     0      15.186   9.114 -14.717  0.00  0.00     0.115 C 
HETATM   15  C   UNK     0      15.150  10.089 -13.552  0.00  0.00     0.021 A 
HETATM   16  N   UNK     0      14.548   9.922 -12.359  0.00  0.00    -0.361 N 
HETATM   17  C   UNK     0      14.687  11.037 -11.638  0.00  0.00     0.022 A 
HETATM   18  C   UNK     0      15.421  11.972 -12.394  0.00  0.00    -0.027 A 
HETATM   19  C   UNK     0      15.706  11.366 -13.590  0.00  0.00    -0.031 A 
HETATM   20  C   UNK     0      16.521  12.017 -14.693  0.00  0.00     0.051 C 
HETATM   21  C   UNK     0      14.138  11.385 -10.273  0.00  0.00     0.115 C 
HETATM   22  C   UNK     0      12.788  10.822  -9.899  0.00  0.00     0.022 A 
HETATM   23  N   UNK     0      11.698  10.698 -10.668  0.00  0.00    -0.361 N 
HETATM   24  C   UNK     0      10.767  10.011  -9.975  0.00  0.00     0.021 A 
HETATM   25  C   UNK     0      11.265   9.695  -8.726  0.00  0.00    -0.031 A 
HETATM   26  C   UNK     0      10.584   8.971  -7.583  0.00  0.00     0.051 C 
HETATM   27  C   UNK     0      12.557  10.203  -8.653  0.00  0.00    -0.027 A 
HETATM   28  C   UNK     0       9.405   9.545 -10.459  0.00  0.00     0.115 C 
HETATM   29  H   UNK     0      10.322   9.867 -13.240  0.00  0.00     0.165 HD
HETATM   30  H   UNK     0      12.925   7.706 -13.502  0.00  0.00     0.165 HD
HETATM   31  H   UNK     0      14.057   8.981 -11.999  0.00  0.00     0.165 HD
HETATM   32  H   UNK     0      11.560  11.132 -11.692  0.00  0.00     0.165 HD
ENDROOT
BRANCH   6  33
HETATM   33  C   UNK     0       8.985   5.309 -13.178  0.00  0.00     0.051 C 
BRANCH  33  34
HETATM   34  C   UNK     0       7.503   5.121 -13.400  0.00  0.00     0.114 C 
BRANCH  34  35
HETATM   35  C   UNK     0       7.194   5.602 -14.777  0.00  0.00     0.139 C 
HETATM   36  O   UNK     0       7.724   5.044 -15.781  0.00  0.00    -0.650 OA
BRANCH  35  37
HETATM   37  O   UNK     0       6.327   6.660 -15.025  0.00  0.00    -0.776 OA
HETATM   38  H   UNK     0       5.459   6.535 -15.521  0.00  0.00     0.167 HD
ENDBRANCH  35  37
ENDBRANCH  34  35
ENDBRANCH  33  34
ENDBRANCH   6  33
BRANCH  27  39
HETATM   39  C   UNK     0      13.393  10.120  -7.425  0.00  0.00     0.051 C 
BRANCH  39  40
HETATM   40  C   UNK     0      14.432   9.092  -7.362  0.00  0.00     0.114 C 
BRANCH  40  41
HETATM   41  C   UNK     0      14.453   7.961  -8.262  0.00  0.00     0.139 C 
HETATM   42  O   UNK     0      13.804   6.923  -8.071  0.00  0.00    -0.650 OA
BRANCH  41  43
HETATM   43  O   UNK     0      15.258   8.025  -9.434  0.00  0.00    -0.776 OA
HETATM   44  H   UNK     0      14.734   8.104 -10.298  0.00  0.00     0.167 HD
ENDBRANCH  41  43
ENDBRANCH  40  41
ENDBRANCH  39  40
ENDBRANCH  27  39
BRANCH  11  45
HETATM   45  C   UNK     0      14.076   9.684 -17.657  0.00  0.00     0.051 C 
BRANCH  45  46
HETATM   46  C   UNK     0      14.084  11.167 -17.578  0.00  0.00     0.114 C 
BRANCH  46  47
HETATM   47  C   UNK     0      13.569  11.681 -18.880  0.00  0.00     0.139 C 
HETATM   48  O   UNK     0      13.158  10.866 -19.717  0.00  0.00    -0.650 OA
BRANCH  47  49
HETATM   49  O   UNK     0      13.552  13.027 -19.147  0.00  0.00    -0.776 OA
HETATM   50  H   UNK     0      14.415  13.578 -19.225  0.00  0.00     0.167 HD
ENDBRANCH  47  49
ENDBRANCH  46  47
ENDBRANCH  45  46
ENDBRANCH  11  45
BRANCH  18  51
HETATM   51  C   UNK     0      15.847  13.360 -11.990  0.00  0.00     0.051 C 
BRANCH  51  52
HETATM   52  C   UNK     0      17.171  13.203 -11.257  0.00  0.00     0.114 C 
BRANCH  52  53
HETATM   53  C   UNK     0      18.042  14.381 -11.437  0.00  0.00     0.139 C 
HETATM   54  O   UNK     0      18.553  14.933 -10.450  0.00  0.00    -0.650 OA
BRANCH  53  55
HETATM   55  O   UNK     0      18.279  14.863 -12.702  0.00  0.00    -0.776 OA
HETATM   56  H   UNK     0      19.158  15.153 -13.061  0.00  0.00     0.167 HD
ENDBRANCH  53  55
ENDBRANCH  52  53
ENDBRANCH  51  52
ENDBRANCH  18  51
TORSDOF 16
ENDMDL
