MODEL 1
REMARK VINA RESULT:      -9.9      0.000      0.000
REMARK  16 active torsions:
REMARK  status: ('A' for Active; 'I' for Inactive)
REMARK    1  A    between atoms: C_6  and  C_7 
REMARK    2  A    between atoms: C_7  and  C_8 
REMARK    3  A    between atoms: C_8  and  C_9 
REMARK    4  A    between atoms: C_9  and  O_11 
REMARK    5  A    between atoms: C_16  and  C_17 
REMARK    6  A    between atoms: C_17  and  C_18 
REMARK    7  A    between atoms: C_18  and  C_19 
REMARK    8  A    between atoms: C_19  and  O_21 
REMARK    9  A    between atoms: C_28  and  C_29 
REMARK   10  A    between atoms: C_29  and  C_30 
REMARK   11  A    between atoms: C_30  and  C_31 
REMARK   12  A    between atoms: C_31  and  O_33 
REMARK   13  A    between atoms: C_42  and  C_43 
REMARK   14  A    between atoms: C_43  and  C_44 
REMARK   15  A    between atoms: C_44  and  C_45 
REMARK   16  A    between atoms: C_45  and  O_47 
ROOT
HETATM    1  C   UNK     0      11.838  17.667 -10.142  0.00  0.00     0.051 C 
HETATM    2  C   UNK     0      12.395  19.013  -9.726  0.00  0.00    -0.031 A 
HETATM    3  C   UNK     0      11.727  20.199  -9.465  0.00  0.00     0.021 A 
HETATM    4  N   UNK     0      12.633  21.157  -9.156  0.00  0.00    -0.361 N 
HETATM    5  C   UNK     0      13.863  20.605  -9.207  0.00  0.00     0.022 A 
HETATM    6  C   UNK     0      13.751  19.266  -9.563  0.00  0.00    -0.027 A 
HETATM    7  C   UNK     0      15.190  21.206  -8.863  0.00  0.00     0.115 C 
HETATM    8  C   UNK     0      15.247  22.061  -7.609  0.00  0.00     0.021 A 
HETATM    9  N   UNK     0      14.585  21.896  -6.454  0.00  0.00    -0.361 N 
HETATM   10  C   UNK     0      14.872  22.944  -5.653  0.00  0.00     0.022 A 
HETATM   11  C   UNK     0      15.750  23.803  -6.307  0.00  0.00    -0.027 A 
HETATM   12  C   UNK     0      15.991  23.253  -7.540  0.00  0.00    -0.031 A 
HETATM   13  C   UNK     0      16.896  23.841  -8.599  0.00  0.00     0.051 C 
HETATM   14  C   UNK     0      14.291  23.204  -4.266  0.00  0.00     0.115 C 
HETATM   15  C   UNK     0      12.779  23.368  -4.253  0.00  0.00     0.021 A 
HETATM   16  N   UNK     0      11.854  22.483  -4.669  0.00  0.00    -0.361 N 
HETATM   17  C   UNK     0      10.642  23.032  -4.557  0.00  0.00     0.022 A 
HETATM   18  C   UNK     0      10.784  24.333  -4.035  0.00  0.00    -0.027 A 
HETATM   19  C   UNK     0      12.127  24.530  -3.847  0.00  0.00    -0.031 A 
HETATM   20  C   UNK     0      12.720  25.799  -3.261  0.00  0.00     0.051 C 
HETATM   21  C   UNK     0       9.288  22.487  -4.953  0.00  0.00     0.115 C 
HETATM   22  C   UNK     0       9.224  21.599  -6.173  0.00  0.00     0.022 A 
HETATM   23  N   UNK     0       9.875  21.736  -7.336  0.00  0.00    -0.361 N 
HETATM   24  C   UNK     0       9.636  20.643  -8.087  0.00  0.00     0.021 A 
HETATM   25  C   UNK     0       8.803  19.784  -7.396  0.00  0.00    -0.031 A 
HETATM   26  C   UNK     0       8.225  18.456  -7.837  0.00  0.00     0.051 C 
HETATM   27  C   UNK     0       8.525  20.374  -6.168  0.00  0.00    -0.027 A 
HETATM   28  C   UNK     0      10.228  20.299  -9.443  0.00  0.00     0.115 C 
HETATM   29  H   UNK     0      12.400  22.226  -8.944  0.00  0.00     0.165 HD
HETATM   30  H   UNK     0      13.954  21.015  -6.181  0.00  0.00     0.165 HD
HETATM   31  H   UNK     0      12.055  21.433  -5.004  0.00  0.00     0.165 HD
HETATM   32  H   UNK     0      10.475  22.628  -7.654  0.00  0.00     0.165 HD
ENDROOT
BRANCH   6  33
HETATM   33  C   UNK     0      14.821  18.222  -9.761  0.00  0.00     0.051 C 
BRANCH  33  34
HETATM   34  C   UNK     0      15.855  18.301  -8.663  0.00  0.00     0.114 C 
BRANCH  34  35
HETATM   35  C   UNK     0      17.196  18.175  -9.303  0.00  0.00     0.139 C 
HETATM   36  O   UNK     0      17.426  18.732 -10.415  0.00  0.00    -0.650 OA
BRANCH  35  37
HETATM   37  O   UNK     0      18.237  17.458  -8.725  0.00  0.00    -0.776 OA
HETATM   38  H   UNK     0      18.843  17.863  -8.030  0.00  0.00     0.167 HD
ENDBRANCH  35  37
ENDBRANCH  34  35
ENDBRANCH  33  34
ENDBRANCH   6  33
BRANCH  27  39
HETATM   39  C   UNK     0       7.596  19.774  -5.172  0.00  0.00     0.051 C 
BRANCH  39  40
HETATM   40  C   UNK     0       6.852  20.672  -4.288  0.00  0.00     0.114 C 
BRANCH  40  41
HETATM   41  C   UNK     0       5.441  20.931  -4.464  0.00  0.00     0.139 C 
HETATM   42  O   UNK     0       4.844  20.768  -5.537  0.00  0.00    -0.650 OA
BRANCH  41  43
HETATM   43  O   UNK     0       4.681  21.398  -3.354  0.00  0.00    -0.776 OA
HETATM   44  H   UNK     0       5.051  21.130  -2.450  0.00  0.00     0.167 HD
ENDBRANCH  41  43
ENDBRANCH  40  41
ENDBRANCH  39  40
ENDBRANCH  27  39
BRANCH  11  45
HETATM   45  C   UNK     0      16.352  25.091  -5.812  0.00  0.00     0.051 C 
BRANCH  45  46
HETATM   46  C   UNK     0      15.411  26.240  -5.814  0.00  0.00     0.114 C 
BRANCH  46  47
HETATM   47  C   UNK     0      15.632  26.990  -7.083  0.00  0.00     0.139 C 
HETATM   48  O   UNK     0      14.746  26.965  -7.948  0.00  0.00    -0.650 OA
BRANCH  47  49
HETATM   49  O   UNK     0      16.792  27.692  -7.291  0.00  0.00    -0.776 OA
HETATM   50  H   UNK     0      17.716  27.245  -7.246  0.00  0.00     0.167 HD
ENDBRANCH  47  49
ENDBRANCH  46  47
ENDBRANCH  45  46
ENDBRANCH  11  45
BRANCH  18  51
HETATM   51  C   UNK     0       9.697  25.325  -3.711  0.00  0.00     0.051 C 
BRANCH  51  52
HETATM   52  C   UNK     0       9.761  25.552  -2.208  0.00  0.00     0.114 C 
BRANCH  52  53
HETATM   53  C   UNK     0       9.635  26.981  -1.863  0.00  0.00     0.139 C 
HETATM   54  O   UNK     0       8.541  27.556  -1.983  0.00  0.00    -0.650 OA
BRANCH  53  55
HETATM   55  O   UNK     0      10.734  27.670  -1.411  0.00  0.00    -0.776 OA
HETATM   56  H   UNK     0      11.601  27.762  -1.885  0.00  0.00     0.167 HD
ENDBRANCH  53  55
ENDBRANCH  52  53
ENDBRANCH  51  52
ENDBRANCH  18  51
TORSDOF 16
ENDMDL
MODEL 2
REMARK VINA RESULT:      -9.5      1.984      6.927
REMARK  16 active torsions:
REMARK  status: ('A' for Active; 'I' for Inactive)
REMARK    1  A    between atoms: C_6  and  C_7 
REMARK    2  A    between atoms: C_7  and  C_8 
REMARK    3  A    between atoms: C_8  and  C_9 
REMARK    4  A    between atoms: C_9  and  O_11 
REMARK    5  A    between atoms: C_16  and  C_17 
REMARK    6  A    between atoms: C_17  and  C_18 
REMARK    7  A    between atoms: C_18  and  C_19 
REMARK    8  A    between atoms: C_19  and  O_21 
REMARK    9  A    between atoms: C_28  and  C_29 
REMARK   10  A    between atoms: C_29  and  C_30 
REMARK   11  A    between atoms: C_30  and  C_31 
REMARK   12  A    between atoms: C_31  and  O_33 
REMARK   13  A    between atoms: C_42  and  C_43 
REMARK   14  A    between atoms: C_43  and  C_44 
REMARK   15  A    between atoms: C_44  and  C_45 
REMARK   16  A    between atoms: C_45  and  O_47 
ROOT
HETATM    1  C   UNK     0      17.375  26.920  -6.062  0.00  0.00     0.051 C 
HETATM    2  C   UNK     0      16.843  25.519  -6.283  0.00  0.00    -0.031 A 
HETATM    3  C   UNK     0      16.189  24.676  -5.398  0.00  0.00     0.021 A 
HETATM    4  N   UNK     0      15.923  23.503  -6.019  0.00  0.00    -0.361 N 
HETATM    5  C   UNK     0      16.386  23.582  -7.284  0.00  0.00     0.022 A 
HETATM    6  C   UNK     0      16.970  24.829  -7.482  0.00  0.00    -0.027 A 
HETATM    7  C   UNK     0      16.263  22.599  -8.406  0.00  0.00     0.115 C 
HETATM    8  C   UNK     0      14.914  21.922  -8.574  0.00  0.00     0.021 A 
HETATM    9  N   UNK     0      13.690  22.434  -8.371  0.00  0.00    -0.361 N 
HETATM   10  C   UNK     0      12.788  21.446  -8.553  0.00  0.00     0.022 A 
HETATM   11  C   UNK     0      13.448  20.269  -8.891  0.00  0.00    -0.027 A 
HETATM   12  C   UNK     0      14.788  20.561  -8.907  0.00  0.00    -0.031 A 
HETATM   13  C   UNK     0      15.893  19.581  -9.231  0.00  0.00     0.051 C 
HETATM   14  C   UNK     0      11.278  21.560  -8.363  0.00  0.00     0.115 C 
HETATM   15  C   UNK     0      10.861  21.935  -6.950  0.00  0.00     0.021 A 
HETATM   16  N   UNK     0      11.209  23.035  -6.256  0.00  0.00    -0.361 N 
HETATM   17  C   UNK     0      10.694  22.959  -5.027  0.00  0.00     0.022 A 
HETATM   18  C   UNK     0       9.968  21.756  -4.918  0.00  0.00    -0.027 A 
HETATM   19  C   UNK     0      10.079  21.125  -6.129  0.00  0.00    -0.031 A 
HETATM   20  C   UNK     0       9.410  19.802  -6.457  0.00  0.00     0.051 C 
HETATM   21  C   UNK     0      10.848  23.894  -3.849  0.00  0.00     0.115 C 
HETATM   22  C   UNK     0      12.170  24.608  -3.694  0.00  0.00     0.022 A 
HETATM   23  N   UNK     0      13.403  24.125  -3.893  0.00  0.00    -0.361 N 
HETATM   24  C   UNK     0      14.280  25.143  -3.784  0.00  0.00     0.021 A 
HETATM   25  C   UNK     0      13.596  26.309  -3.497  0.00  0.00    -0.031 A 
HETATM   26  C   UNK     0      14.144  27.698  -3.244  0.00  0.00     0.051 C 
HETATM   27  C   UNK     0      12.244  25.992  -3.434  0.00  0.00    -0.027 A 
HETATM   28  C   UNK     0      15.781  25.107  -4.017  0.00  0.00     0.115 C 
HETATM   29  H   UNK     0      15.447  22.612  -5.548  0.00  0.00     0.165 HD
HETATM   30  H   UNK     0      13.457  23.504  -8.148  0.00  0.00     0.165 HD
HETATM   31  H   UNK     0      11.790  23.906  -6.656  0.00  0.00     0.165 HD
HETATM   32  H   UNK     0      13.671  23.051  -4.071  0.00  0.00     0.165 HD
ENDROOT
BRANCH   6  33
HETATM   33  C   UNK     0      17.632  25.407  -8.707  0.00  0.00     0.051 C 
BRANCH  33  34
HETATM   34  C   UNK     0      19.029  24.855  -8.870  0.00  0.00     0.114 C 
BRANCH  34  35
HETATM   35  C   UNK     0      19.048  24.053 -10.127  0.00  0.00     0.139 C 
HETATM   36  O   UNK     0      19.250  22.805 -10.083  0.00  0.00    -0.650 OA
BRANCH  35  37
HETATM   37  O   UNK     0      18.848  24.619 -11.380  0.00  0.00    -0.776 OA
HETATM   38  H   UNK     0      18.163  25.340 -11.538  0.00  0.00     0.167 HD
ENDBRANCH  35  37
ENDBRANCH  34  35
ENDBRANCH  33  34
ENDBRANCH   6  33
BRANCH  27  39
HETATM   39  C   UNK     0      11.195  26.984  -3.074  0.00  0.00     0.051 C 
BRANCH  39  40
HETATM   40  C   UNK     0      10.116  26.559  -2.182  0.00  0.00     0.114 C 
BRANCH  40  41
HETATM   41  C   UNK     0       8.755  27.021  -2.345  0.00  0.00     0.139 C 
HETATM   42  O   UNK     0       8.119  26.915  -3.402  0.00  0.00    -0.650 OA
BRANCH  41  43
HETATM   43  O   UNK     0       8.097  27.633  -1.241  0.00  0.00    -0.776 OA
HETATM   44  H   UNK     0       7.679  28.532  -1.448  0.00  0.00     0.167 HD
ENDBRANCH  41  43
ENDBRANCH  40  41
ENDBRANCH  39  40
ENDBRANCH  27  39
BRANCH  11  45
HETATM   45  C   UNK     0      12.863  18.915  -9.194  0.00  0.00     0.051 C 
BRANCH  45  46
HETATM   46  C   UNK     0      12.963  18.518 -10.622  0.00  0.00     0.114 C 
BRANCH  46  47
HETATM   47  C   UNK     0      13.713  17.230 -10.670  0.00  0.00     0.139 C 
HETATM   48  O   UNK     0      13.306  16.281  -9.987  0.00  0.00    -0.650 OA
BRANCH  47  49
HETATM   49  O   UNK     0      14.833  17.099 -11.453  0.00  0.00    -0.776 OA
HETATM   50  H   UNK     0      15.552  16.391 -11.261  0.00  0.00     0.167 HD
ENDBRANCH  47  49
ENDBRANCH  46  47
ENDBRANCH  45  46
ENDBRANCH  11  45
BRANCH  18  51
HETATM   51  C   UNK     0       9.192  21.247  -3.731  0.00  0.00     0.051 C 
BRANCH  51  52
HETATM   52  C   UNK     0       7.786  21.812  -3.865  0.00  0.00     0.114 C 
BRANCH  52  53
HETATM   53  C   UNK     0       6.786  20.751  -4.092  0.00  0.00     0.139 C 
HETATM   54  O   UNK     0       5.575  21.016  -4.036  0.00  0.00    -0.650 OA
BRANCH  53  55
HETATM   55  O   UNK     0       7.204  19.470  -4.362  0.00  0.00    -0.776 OA
HETATM   56  H   UNK     0       6.616  18.689  -4.536  0.00  0.00     0.167 HD
ENDBRANCH  53  55
ENDBRANCH  52  53
ENDBRANCH  51  52
ENDBRANCH  18  51
TORSDOF 16
ENDMDL
MODEL 3
REMARK VINA RESULT:      -8.9     27.350     31.179
REMARK  16 active torsions:
REMARK  status: ('A' for Active; 'I' for Inactive)
REMARK    1  A    between atoms: C_6  and  C_7 
REMARK    2  A    between atoms: C_7  and  C_8 
REMARK    3  A    between atoms: C_8  and  C_9 
REMARK    4  A    between atoms: C_9  and  O_11 
REMARK    5  A    between atoms: C_16  and  C_17 
REMARK    6  A    between atoms: C_17  and  C_18 
REMARK    7  A    between atoms: C_18  and  C_19 
REMARK    8  A    between atoms: C_19  and  O_21 
REMARK    9  A    between atoms: C_28  and  C_29 
REMARK   10  A    between atoms: C_29  and  C_30 
REMARK   11  A    between atoms: C_30  and  C_31 
REMARK   12  A    between atoms: C_31  and  O_33 
REMARK   13  A    between atoms: C_42  and  C_43 
REMARK   14  A    between atoms: C_43  and  C_44 
REMARK   15  A    between atoms: C_44  and  C_45 
REMARK   16  A    between atoms: C_45  and  O_47 
ROOT
HETATM    1  C   UNK     0      20.672   2.720  10.389  0.00  0.00     0.051 C 
HETATM    2  C   UNK     0      19.737   1.604   9.971  0.00  0.00    -0.031 A 
HETATM    3  C   UNK     0      19.504   1.077   8.710  0.00  0.00     0.021 A 
HETATM    4  N   UNK     0      18.561   0.111   8.803  0.00  0.00    -0.361 N 
HETATM    5  C   UNK     0      18.193   0.004  10.097  0.00  0.00     0.022 A 
HETATM    6  C   UNK     0      18.908   0.926  10.854  0.00  0.00    -0.027 A 
HETATM    7  C   UNK     0      17.259  -0.970  10.744  0.00  0.00     0.115 C 
HETATM    8  C   UNK     0      17.364  -2.417  10.295  0.00  0.00     0.021 A 
HETATM    9  N   UNK     0      18.461  -3.106   9.945  0.00  0.00    -0.361 N 
HETATM   10  C   UNK     0      18.073  -4.330   9.527  0.00  0.00     0.022 A 
HETATM   11  C   UNK     0      16.688  -4.435   9.620  0.00  0.00    -0.027 A 
HETATM   12  C   UNK     0      16.235  -3.233  10.103  0.00  0.00    -0.031 A 
HETATM   13  C   UNK     0      14.787  -2.889  10.372  0.00  0.00     0.051 C 
HETATM   14  C   UNK     0      18.981  -5.425   8.977  0.00  0.00     0.115 C 
HETATM   15  C   UNK     0      19.730  -5.027   7.715  0.00  0.00     0.021 A 
HETATM   16  N   UNK     0      20.580  -3.996   7.555  0.00  0.00    -0.361 N 
HETATM   17  C   UNK     0      20.973  -3.945   6.280  0.00  0.00     0.022 A 
HETATM   18  C   UNK     0      20.356  -4.999   5.578  0.00  0.00    -0.027 A 
HETATM   19  C   UNK     0      19.581  -5.670   6.488  0.00  0.00    -0.031 A 
HETATM   20  C   UNK     0      18.767  -6.907   6.154  0.00  0.00     0.051 C 
HETATM   21  C   UNK     0      21.859  -2.943   5.575  0.00  0.00     0.115 C 
HETATM   22  C   UNK     0      21.796  -1.507   6.041  0.00  0.00     0.022 A 
HETATM   23  N   UNK     0      20.719  -0.797   6.400  0.00  0.00    -0.361 N 
HETATM   24  C   UNK     0      21.136   0.389   6.885  0.00  0.00     0.021 A 
HETATM   25  C   UNK     0      22.515   0.449   6.828  0.00  0.00    -0.031 A 
HETATM   26  C   UNK     0      23.437   1.586   7.218  0.00  0.00     0.051 C 
HETATM   27  C   UNK     0      22.961  -0.753   6.291  0.00  0.00    -0.027 A 
HETATM   28  C   UNK     0      20.290   1.492   7.498  0.00  0.00     0.115 C 
HETATM   29  H   UNK     0      18.132  -0.462   7.948  0.00  0.00     0.165 HD
HETATM   30  H   UNK     0      19.516  -2.749  10.038  0.00  0.00     0.165 HD
HETATM   31  H   UNK     0      20.950  -3.318   8.368  0.00  0.00     0.165 HD
HETATM   32  H   UNK     0      19.650  -1.110   6.274  0.00  0.00     0.165 HD
ENDROOT
BRANCH   6  33
HETATM   33  C   UNK     0      18.861   1.209  12.335  0.00  0.00     0.051 C 
BRANCH  33  34
HETATM   34  C   UNK     0      19.879   0.372  13.072  0.00  0.00     0.114 C 
BRANCH  34  35
HETATM   35  C   UNK     0      20.823   1.308  13.747  0.00  0.00     0.139 C 
HETATM   36  O   UNK     0      20.392   2.375  14.276  0.00  0.00    -0.650 OA
BRANCH  35  37
HETATM   37  O   UNK     0      22.188   1.065  13.832  0.00  0.00    -0.776 OA
HETATM   38  H   UNK     0      22.824   1.322  13.094  0.00  0.00     0.167 HD
ENDBRANCH  35  37
ENDBRANCH  34  35
ENDBRANCH  33  34
ENDBRANCH   6  33
BRANCH  27  39
HETATM   39  C   UNK     0      24.395  -1.033   6.009  0.00  0.00     0.051 C 
BRANCH  39  40
HETATM   40  C   UNK     0      24.988  -0.464   4.800  0.00  0.00     0.114 C 
BRANCH  40  41
HETATM   41  C   UNK     0      24.799  -1.057   3.495  0.00  0.00     0.139 C 
HETATM   42  O   UNK     0      24.880  -0.420   2.436  0.00  0.00    -0.650 OA
BRANCH  41  43
HETATM   43  O   UNK     0      24.502  -2.447   3.405  0.00  0.00    -0.776 OA
HETATM   44  H   UNK     0      23.525  -2.657   3.236  0.00  0.00     0.167 HD
ENDBRANCH  41  43
ENDBRANCH  40  41
ENDBRANCH  39  40
ENDBRANCH  27  39
BRANCH  11  45
HETATM   45  C   UNK     0      15.807  -5.606   9.277  0.00  0.00     0.051 C 
BRANCH  45  46
HETATM   46  C   UNK     0      15.233  -6.299  10.459  0.00  0.00     0.114 C 
BRANCH  46  47
HETATM   47  C   UNK     0      16.352  -7.012  11.140  0.00  0.00     0.139 C 
HETATM   48  O   UNK     0      16.954  -7.898  10.518  0.00  0.00    -0.650 OA
BRANCH  47  49
HETATM   49  O   UNK     0      16.706  -6.696  12.427  0.00  0.00    -0.776 OA
HETATM   50  H   UNK     0      17.686  -6.568  12.706  0.00  0.00     0.167 HD
ENDBRANCH  47  49
ENDBRANCH  46  47
ENDBRANCH  45  46
ENDBRANCH  11  45
BRANCH  18  51
HETATM   51  C   UNK     0      20.512  -5.360   4.123  0.00  0.00     0.051 C 
BRANCH  51  52
HETATM   52  C   UNK     0      19.270  -4.837   3.418  0.00  0.00     0.114 C 
BRANCH  52  53
HETATM   53  C   UNK     0      18.732  -5.815   2.453  0.00  0.00     0.139 C 
HETATM   54  O   UNK     0      17.832  -5.482   1.666  0.00  0.00    -0.650 OA
BRANCH  53  55
HETATM   55  O   UNK     0      19.232  -7.095   2.433  0.00  0.00    -0.776 OA
HETATM   56  H   UNK     0      20.144  -7.362   2.146  0.00  0.00     0.167 HD
ENDBRANCH  53  55
ENDBRANCH  52  53
ENDBRANCH  51  52
ENDBRANCH  18  51
TORSDOF 16
ENDMDL
MODEL 4
REMARK VINA RESULT:      -8.9      2.449      8.078
REMARK  16 active torsions:
REMARK  status: ('A' for Active; 'I' for Inactive)
REMARK    1  A    between atoms: C_6  and  C_7 
REMARK    2  A    between atoms: C_7  and  C_8 
REMARK    3  A    between atoms: C_8  and  C_9 
REMARK    4  A    between atoms: C_9  and  O_11 
REMARK    5  A    between atoms: C_16  and  C_17 
REMARK    6  A    between atoms: C_17  and  C_18 
REMARK    7  A    between atoms: C_18  and  C_19 
REMARK    8  A    between atoms: C_19  and  O_21 
REMARK    9  A    between atoms: C_28  and  C_29 
REMARK   10  A    between atoms: C_29  and  C_30 
REMARK   11  A    between atoms: C_30  and  C_31 
REMARK   12  A    between atoms: C_31  and  O_33 
REMARK   13  A    between atoms: C_42  and  C_43 
REMARK   14  A    between atoms: C_43  and  C_44 
REMARK   15  A    between atoms: C_44  and  C_45 
REMARK   16  A    between atoms: C_45  and  O_47 
ROOT
HETATM    1  C   UNK     0       8.839  24.521  -2.717  0.00  0.00     0.051 C 
HETATM    2  C   UNK     0      10.342  24.595  -2.894  0.00  0.00    -0.031 A 
HETATM    3  C   UNK     0      11.230  23.608  -3.294  0.00  0.00     0.021 A 
HETATM    4  N   UNK     0      12.486  24.114  -3.281  0.00  0.00    -0.361 N 
HETATM    5  C   UNK     0      12.417  25.403  -2.891  0.00  0.00     0.022 A 
HETATM    6  C   UNK     0      11.090  25.736  -2.638  0.00  0.00    -0.027 A 
HETATM    7  C   UNK     0      13.502  26.430  -2.802  0.00  0.00     0.115 C 
HETATM    8  C   UNK     0      14.499  26.470  -3.947  0.00  0.00     0.021 A 
HETATM    9  N   UNK     0      14.282  26.247  -5.252  0.00  0.00    -0.361 N 
HETATM   10  C   UNK     0      15.471  26.297  -5.889  0.00  0.00     0.022 A 
HETATM   11  C   UNK     0      16.480  26.569  -4.971  0.00  0.00    -0.027 A 
HETATM   12  C   UNK     0      15.875  26.679  -3.745  0.00  0.00    -0.031 A 
HETATM   13  C   UNK     0      16.585  26.976  -2.443  0.00  0.00     0.051 C 
HETATM   14  C   UNK     0      15.709  26.039  -7.374  0.00  0.00     0.115 C 
HETATM   15  C   UNK     0      15.314  24.643  -7.828  0.00  0.00     0.021 A 
HETATM   16  N   UNK     0      14.102  24.064  -7.741  0.00  0.00    -0.361 N 
HETATM   17  C   UNK     0      14.183  22.807  -8.184  0.00  0.00     0.022 A 
HETATM   18  C   UNK     0      15.510  22.559  -8.589  0.00  0.00    -0.027 A 
HETATM   19  C   UNK     0      16.208  23.717  -8.362  0.00  0.00    -0.031 A 
HETATM   20  C   UNK     0      17.678  23.896  -8.695  0.00  0.00     0.051 C 
HETATM   21  C   UNK     0      13.132  21.722  -8.229  0.00  0.00     0.115 C 
HETATM   22  C   UNK     0      12.107  21.698  -7.120  0.00  0.00     0.022 A 
HETATM   23  N   UNK     0      12.294  21.920  -5.812  0.00  0.00    -0.361 N 
HETATM   24  C   UNK     0      11.088  21.942  -5.210  0.00  0.00     0.021 A 
HETATM   25  C   UNK     0      10.101  21.719  -6.150  0.00  0.00    -0.031 A 
HETATM   26  C   UNK     0       8.603  21.614  -5.954  0.00  0.00     0.051 C 
HETATM   27  C   UNK     0      10.729  21.559  -7.381  0.00  0.00    -0.027 A 
HETATM   28  C   UNK     0      10.782  22.250  -3.754  0.00  0.00     0.115 C 
HETATM   29  H   UNK     0      13.417  23.545  -3.510  0.00  0.00     0.165 HD
HETATM   30  H   UNK     0      13.284  26.104  -5.735  0.00  0.00     0.165 HD
HETATM   31  H   UNK     0      13.158  24.566  -7.404  0.00  0.00     0.165 HD
HETATM   32  H   UNK     0      13.283  22.019  -5.294  0.00  0.00     0.165 HD
ENDROOT
BRANCH   6  33
HETATM   33  C   UNK     0      10.488  27.038  -2.174  0.00  0.00     0.051 C 
BRANCH  33  34
HETATM   34  C   UNK     0       9.187  27.312  -2.891  0.00  0.00     0.114 C 
BRANCH  34  35
HETATM   35  C   UNK     0       8.296  28.035  -1.939  0.00  0.00     0.139 C 
HETATM   36  O   UNK     0       8.050  29.265  -2.107  0.00  0.00    -0.650 OA
BRANCH  35  37
HETATM   37  O   UNK     0       7.703  27.413  -0.848  0.00  0.00    -0.776 OA
HETATM   38  H   UNK     0       8.239  27.092  -0.059  0.00  0.00     0.167 HD
ENDBRANCH  35  37
ENDBRANCH  34  35
ENDBRANCH  33  34
ENDBRANCH   6  33
BRANCH  27  39
HETATM   39  C   UNK     0       9.991  21.230  -8.630  0.00  0.00     0.051 C 
BRANCH  39  40
HETATM   40  C   UNK     0      10.445  20.088  -9.424  0.00  0.00     0.114 C 
BRANCH  40  41
HETATM   41  C   UNK     0      10.408  18.735  -8.918  0.00  0.00     0.139 C 
HETATM   42  O   UNK     0      11.241  17.869  -9.219  0.00  0.00    -0.650 OA
BRANCH  41  43
HETATM   43  O   UNK     0       9.364  18.359  -8.026  0.00  0.00    -0.776 OA
HETATM   44  H   UNK     0       8.612  19.033  -7.953  0.00  0.00     0.167 HD
ENDBRANCH  41  43
ENDBRANCH  40  41
ENDBRANCH  39  40
ENDBRANCH  27  39
BRANCH  11  45
HETATM   45  C   UNK     0      17.957  26.725  -5.213  0.00  0.00     0.051 C 
BRANCH  45  46
HETATM   46  C   UNK     0      18.733  25.468  -5.062  0.00  0.00     0.114 C 
BRANCH  46  47
HETATM   47  C   UNK     0      20.140  25.767  -5.455  0.00  0.00     0.139 C 
HETATM   48  O   UNK     0      21.020  24.940  -5.179  0.00  0.00    -0.650 OA
BRANCH  47  49
HETATM   49  O   UNK     0      20.455  26.932  -6.107  0.00  0.00    -0.776 OA
HETATM   50  H   UNK     0      21.277  27.010  -6.717  0.00  0.00     0.167 HD
ENDBRANCH  47  49
ENDBRANCH  46  47
ENDBRANCH  45  46
ENDBRANCH  11  45
BRANCH  18  51
HETATM   51  C   UNK     0      16.078  21.294  -9.179  0.00  0.00     0.051 C 
BRANCH  51  52
HETATM   52  C   UNK     0      15.905  20.215  -8.121  0.00  0.00     0.114 C 
BRANCH  52  53
HETATM   53  C   UNK     0      15.837  18.867  -8.717  0.00  0.00     0.139 C 
HETATM   54  O   UNK     0      16.601  17.973  -8.320  0.00  0.00    -0.650 OA
BRANCH  53  55
HETATM   55  O   UNK     0      14.927  18.610  -9.713  0.00  0.00    -0.776 OA
HETATM   56  H   UNK     0      14.845  17.763 -10.225  0.00  0.00     0.167 HD
ENDBRANCH  53  55
ENDBRANCH  52  53
ENDBRANCH  51  52
ENDBRANCH  18  51
TORSDOF 16
ENDMDL
MODEL 5
REMARK VINA RESULT:      -8.7      1.569      7.221
REMARK  16 active torsions:
REMARK  status: ('A' for Active; 'I' for Inactive)
REMARK    1  A    between atoms: C_6  and  C_7 
REMARK    2  A    between atoms: C_7  and  C_8 
REMARK    3  A    between atoms: C_8  and  C_9 
REMARK    4  A    between atoms: C_9  and  O_11 
REMARK    5  A    between atoms: C_16  and  C_17 
REMARK    6  A    between atoms: C_17  and  C_18 
REMARK    7  A    between atoms: C_18  and  C_19 
REMARK    8  A    between atoms: C_19  and  O_21 
REMARK    9  A    between atoms: C_28  and  C_29 
REMARK   10  A    between atoms: C_29  and  C_30 
REMARK   11  A    between atoms: C_30  and  C_31 
REMARK   12  A    between atoms: C_31  and  O_33 
REMARK   13  A    between atoms: C_42  and  C_43 
REMARK   14  A    between atoms: C_43  and  C_44 
REMARK   15  A    between atoms: C_44  and  C_45 
REMARK   16  A    between atoms: C_45  and  O_47 
ROOT
HETATM    1  C   UNK     0      15.756  26.438  -4.906  0.00  0.00     0.051 C 
HETATM    2  C   UNK     0      15.395  25.044  -5.378  0.00  0.00    -0.031 A 
HETATM    3  C   UNK     0      14.679  24.052  -4.728  0.00  0.00     0.021 A 
HETATM    4  N   UNK     0      14.628  22.954  -5.518  0.00  0.00    -0.361 N 
HETATM    5  C   UNK     0      15.289  23.227  -6.662  0.00  0.00     0.022 A 
HETATM    6  C   UNK     0      15.784  24.525  -6.607  0.00  0.00    -0.027 A 
HETATM    7  C   UNK     0      15.446  22.391  -7.893  0.00  0.00     0.115 C 
HETATM    8  C   UNK     0      14.211  21.652  -8.377  0.00  0.00     0.021 A 
HETATM    9  N   UNK     0      12.930  22.049  -8.339  0.00  0.00    -0.361 N 
HETATM   10  C   UNK     0      12.162  21.035  -8.792  0.00  0.00     0.022 A 
HETATM   11  C   UNK     0      12.972  19.958  -9.141  0.00  0.00    -0.027 A 
HETATM   12  C   UNK     0      14.264  20.340  -8.882  0.00  0.00    -0.031 A 
HETATM   13  C   UNK     0      15.491  19.487  -9.114  0.00  0.00     0.051 C 
HETATM   14  C   UNK     0      10.638  21.021  -8.864  0.00  0.00     0.115 C 
HETATM   15  C   UNK     0       9.956  21.182  -7.515  0.00  0.00     0.021 A 
HETATM   16  N   UNK     0      10.082  22.204  -6.648  0.00  0.00    -0.361 N 
HETATM   17  C   UNK     0       9.375  21.935  -5.548  0.00  0.00     0.022 A 
HETATM   18  C   UNK     0       8.751  20.682  -5.710  0.00  0.00    -0.027 A 
HETATM   19  C   UNK     0       9.122  20.222  -6.947  0.00  0.00    -0.031 A 
HETATM   20  C   UNK     0       8.638  18.910  -7.539  0.00  0.00     0.051 C 
HETATM   21  C   UNK     0       9.244  22.718  -4.262  0.00  0.00     0.115 C 
HETATM   22  C   UNK     0      10.452  23.494  -3.791  0.00  0.00     0.022 A 
HETATM   23  N   UNK     0      11.739  23.125  -3.821  0.00  0.00    -0.361 N 
HETATM   24  C   UNK     0      12.490  24.177  -3.439  0.00  0.00     0.021 A 
HETATM   25  C   UNK     0      11.666  25.247  -3.147  0.00  0.00    -0.031 A 
HETATM   26  C   UNK     0      12.037  26.626  -2.641  0.00  0.00     0.051 C 
HETATM   27  C   UNK     0      10.357  24.834  -3.364  0.00  0.00    -0.027 A 
HETATM   28  C   UNK     0      14.006  24.273  -3.402  0.00  0.00     0.115 C 
HETATM   29  H   UNK     0      14.159  21.980  -5.246  0.00  0.00     0.165 HD
HETATM   30  H   UNK     0      12.568  23.063  -8.040  0.00  0.00     0.165 HD
HETATM   31  H   UNK     0      10.643  23.157  -6.834  0.00  0.00     0.165 HD
HETATM   32  H   UNK     0      12.127  22.103  -4.070  0.00  0.00     0.165 HD
ENDROOT
BRANCH   6  33
HETATM   33  C   UNK     0      16.591  25.300  -7.618  0.00  0.00     0.051 C 
BRANCH  33  34
HETATM   34  C   UNK     0      18.067  25.197  -7.317  0.00  0.00     0.114 C 
BRANCH  34  35
HETATM   35  C   UNK     0      18.524  26.541  -6.860  0.00  0.00     0.139 C 
HETATM   36  O   UNK     0      17.989  27.589  -7.328  0.00  0.00    -0.650 OA
BRANCH  35  37
HETATM   37  O   UNK     0      19.534  26.710  -5.920  0.00  0.00    -0.776 OA
HETATM   38  H   UNK     0      20.358  27.256  -6.113  0.00  0.00     0.167 HD
ENDBRANCH  35  37
ENDBRANCH  34  35
ENDBRANCH  33  34
ENDBRANCH   6  33
BRANCH  27  39
HETATM   39  C   UNK     0       9.177  25.698  -3.086  0.00  0.00     0.051 C 
BRANCH  39  40
HETATM   40  C   UNK     0       9.380  26.919  -2.306  0.00  0.00     0.114 C 
BRANCH  40  41
HETATM   41  C   UNK     0       8.346  27.917  -2.155  0.00  0.00     0.139 C 
HETATM   42  O   UNK     0       8.373  28.805  -1.291  0.00  0.00    -0.650 OA
BRANCH  41  43
HETATM   43  O   UNK     0       7.229  27.894  -3.037  0.00  0.00    -0.776 OA
HETATM   44  H   UNK     0       7.329  28.481  -3.856  0.00  0.00     0.167 HD
ENDBRANCH  41  43
ENDBRANCH  40  41
ENDBRANCH  39  40
ENDBRANCH  27  39
BRANCH  11  45
HETATM   45  C   UNK     0      12.570  18.619  -9.697  0.00  0.00     0.051 C 
BRANCH  45  46
HETATM   46  C   UNK     0      13.450  18.128 -10.789  0.00  0.00     0.114 C 
BRANCH  46  47
HETATM   47  C   UNK     0      13.661  16.670 -10.564  0.00  0.00     0.139 C 
HETATM   48  O   UNK     0      13.344  16.188  -9.467  0.00  0.00    -0.650 OA
BRANCH  47  49
HETATM   49  O   UNK     0      14.197  15.877 -11.547  0.00  0.00    -0.776 OA
HETATM   50  H   UNK     0      15.082  15.373 -11.419  0.00  0.00     0.167 HD
ENDBRANCH  47  49
ENDBRANCH  46  47
ENDBRANCH  45  46
ENDBRANCH  11  45
BRANCH  18  51
HETATM   51  C   UNK     0       7.834  19.973  -4.748  0.00  0.00     0.051 C 
BRANCH  51  52
HETATM   52  C   UNK     0       6.510  19.791  -5.476  0.00  0.00     0.114 C 
BRANCH  52  53
HETATM   53  C   UNK     0       5.480  20.727  -4.985  0.00  0.00     0.139 C 
HETATM   54  O   UNK     0       5.608  21.264  -3.873  0.00  0.00    -0.650 OA
BRANCH  53  55
HETATM   55  O   UNK     0       4.380  20.997  -5.763  0.00  0.00    -0.776 OA
HETATM   56  H   UNK     0       4.385  21.170  -6.740  0.00  0.00     0.167 HD
ENDBRANCH  53  55
ENDBRANCH  52  53
ENDBRANCH  51  52
ENDBRANCH  18  51
TORSDOF 16
ENDMDL
MODEL 6
REMARK VINA RESULT:      -8.5     27.900     30.973
REMARK  16 active torsions:
REMARK  status: ('A' for Active; 'I' for Inactive)
REMARK    1  A    between atoms: C_6  and  C_7 
REMARK    2  A    between atoms: C_7  and  C_8 
REMARK    3  A    between atoms: C_8  and  C_9 
REMARK    4  A    between atoms: C_9  and  O_11 
REMARK    5  A    between atoms: C_16  and  C_17 
REMARK    6  A    between atoms: C_17  and  C_18 
REMARK    7  A    between atoms: C_18  and  C_19 
REMARK    8  A    between atoms: C_19  and  O_21 
REMARK    9  A    between atoms: C_28  and  C_29 
REMARK   10  A    between atoms: C_29  and  C_30 
REMARK   11  A    between atoms: C_30  and  C_31 
REMARK   12  A    between atoms: C_31  and  O_33 
REMARK   13  A    between atoms: C_42  and  C_43 
REMARK   14  A    between atoms: C_43  and  C_44 
REMARK   15  A    between atoms: C_44  and  C_45 
REMARK   16  A    between atoms: C_45  and  O_47 
ROOT
HETATM    1  C   UNK     0      13.005  -5.757  10.495  0.00  0.00     0.051 C 
HETATM    2  C   UNK     0      14.213  -4.891  10.199  0.00  0.00    -0.031 A 
HETATM    3  C   UNK     0      15.506  -5.267   9.871  0.00  0.00     0.021 A 
HETATM    4  N   UNK     0      16.264  -4.154   9.723  0.00  0.00    -0.361 N 
HETATM    5  C   UNK     0      15.481  -3.078   9.943  0.00  0.00     0.022 A 
HETATM    6  C   UNK     0      14.192  -3.503  10.246  0.00  0.00    -0.027 A 
HETATM    7  C   UNK     0      15.805  -1.623   9.814  0.00  0.00     0.115 C 
HETATM    8  C   UNK     0      16.625  -1.211   8.604  0.00  0.00     0.021 A 
HETATM    9  N   UNK     0      16.588  -1.712   7.359  0.00  0.00    -0.361 N 
HETATM   10  C   UNK     0      17.555  -1.109   6.635  0.00  0.00     0.022 A 
HETATM   11  C   UNK     0      18.227  -0.187   7.433  0.00  0.00    -0.027 A 
HETATM   12  C   UNK     0      17.646  -0.247   8.674  0.00  0.00    -0.031 A 
HETATM   13  C   UNK     0      18.051   0.587   9.869  0.00  0.00     0.051 C 
HETATM   14  C   UNK     0      17.917  -1.413   5.184  0.00  0.00     0.115 C 
HETATM   15  C   UNK     0      18.376  -2.843   4.951  0.00  0.00     0.021 A 
HETATM   16  N   UNK     0      17.694  -3.976   5.204  0.00  0.00    -0.361 N 
HETATM   17  C   UNK     0      18.470  -5.026   4.927  0.00  0.00     0.022 A 
HETATM   18  C   UNK     0      19.714  -4.555   4.463  0.00  0.00    -0.027 A 
HETATM   19  C   UNK     0      19.642  -3.186   4.482  0.00  0.00    -0.031 A 
HETATM   20  C   UNK     0      20.765  -2.275   4.021  0.00  0.00     0.051 C 
HETATM   21  C   UNK     0      18.205  -6.504   5.105  0.00  0.00     0.115 C 
HETATM   22  C   UNK     0      17.354  -6.924   6.280  0.00  0.00     0.022 A 
HETATM   23  N   UNK     0      17.367  -6.440   7.529  0.00  0.00    -0.361 N 
HETATM   24  C   UNK     0      16.346  -6.999   8.210  0.00  0.00     0.021 A 
HETATM   25  C   UNK     0      15.666  -7.871   7.382  0.00  0.00    -0.031 A 
HETATM   26  C   UNK     0      14.480  -8.758   7.701  0.00  0.00     0.051 C 
HETATM   27  C   UNK     0      16.292  -7.841   6.142  0.00  0.00    -0.027 A 
HETATM   28  C   UNK     0      15.900  -6.696   9.630  0.00  0.00     0.115 C 
HETATM   29  H   UNK     0      17.357  -4.139   9.505  0.00  0.00     0.165 HD
HETATM   30  H   UNK     0      15.848  -2.456   6.974  0.00  0.00     0.165 HD
HETATM   31  H   UNK     0      16.626  -4.037   5.539  0.00  0.00     0.165 HD
HETATM   32  H   UNK     0      18.124  -5.732   7.955  0.00  0.00     0.165 HD
ENDROOT
BRANCH   6  33
HETATM   33  C   UNK     0      12.958  -2.701  10.574  0.00  0.00     0.051 C 
BRANCH  33  34
HETATM   34  C   UNK     0      13.277  -1.225  10.622  0.00  0.00     0.114 C 
BRANCH  34  35
HETATM   35  C   UNK     0      13.205  -0.799  12.049  0.00  0.00     0.139 C 
HETATM   36  O   UNK     0      14.266  -0.559  12.696  0.00  0.00    -0.650 OA
BRANCH  35  37
HETATM   37  O   UNK     0      12.001  -0.644  12.726  0.00  0.00    -0.776 OA
HETATM   38  H   UNK     0      11.963  -0.337  13.684  0.00  0.00     0.167 HD
ENDBRANCH  35  37
ENDBRANCH  34  35
ENDBRANCH  33  34
ENDBRANCH   6  33
BRANCH  27  39
HETATM   39  C   UNK     0      15.882  -8.709   5.005  0.00  0.00     0.051 C 
BRANCH  39  40
HETATM   40  C   UNK     0      14.996  -8.146   3.986  0.00  0.00     0.114 C 
BRANCH  40  41
HETATM   41  C   UNK     0      13.658  -8.646   3.767  0.00  0.00     0.139 C 
HETATM   42  O   UNK     0      12.835  -8.818   4.677  0.00  0.00    -0.650 OA
BRANCH  41  43
HETATM   43  O   UNK     0      13.246  -8.961   2.441  0.00  0.00    -0.776 OA
HETATM   44  H   UNK     0      13.878  -9.576   1.942  0.00  0.00     0.167 HD
ENDBRANCH  41  43
ENDBRANCH  40  41
ENDBRANCH  39  40
ENDBRANCH  27  39
BRANCH  11  45
HETATM   45  C   UNK     0      19.367   0.723   7.064  0.00  0.00     0.051 C 
BRANCH  45  46
HETATM   46  C   UNK     0      20.660   0.022   6.859  0.00  0.00     0.114 C 
BRANCH  46  47
HETATM   47  C   UNK     0      21.201  -0.311   8.208  0.00  0.00     0.139 C 
HETATM   48  O   UNK     0      21.311  -1.504   8.525  0.00  0.00    -0.650 OA
BRANCH  47  49
HETATM   49  O   UNK     0      21.567   0.681   9.083  0.00  0.00    -0.776 OA
HETATM   50  H   UNK     0      21.894   0.475  10.034  0.00  0.00     0.167 HD
ENDBRANCH  47  49
ENDBRANCH  46  47
ENDBRANCH  45  46
ENDBRANCH  11  45
BRANCH  18  51
HETATM   51  C   UNK     0      20.900  -5.365   4.006  0.00  0.00     0.051 C 
BRANCH  51  52
HETATM   52  C   UNK     0      22.026  -5.060   4.983  0.00  0.00     0.114 C 
BRANCH  52  53
HETATM   53  C   UNK     0      21.592  -5.209   6.386  0.00  0.00     0.139 C 
HETATM   54  O   UNK     0      21.227  -6.317   6.809  0.00  0.00    -0.650 OA
BRANCH  53  55
HETATM   55  O   UNK     0      21.592  -4.115   7.216  0.00  0.00    -0.776 OA
HETATM   56  H   UNK     0      21.761  -4.124   8.195  0.00  0.00     0.167 HD
ENDBRANCH  53  55
ENDBRANCH  52  53
ENDBRANCH  51  52
ENDBRANCH  18  51
TORSDOF 16
ENDMDL
MODEL 7
REMARK VINA RESULT:      -8.3      1.563      2.010
REMARK  16 active torsions:
REMARK  status: ('A' for Active; 'I' for Inactive)
REMARK    1  A    between atoms: C_6  and  C_7 
REMARK    2  A    between atoms: C_7  and  C_8 
REMARK    3  A    between atoms: C_8  and  C_9 
REMARK    4  A    between atoms: C_9  and  O_11 
REMARK    5  A    between atoms: C_16  and  C_17 
REMARK    6  A    between atoms: C_17  and  C_18 
REMARK    7  A    between atoms: C_18  and  C_19 
REMARK    8  A    between atoms: C_19  and  O_21 
REMARK    9  A    between atoms: C_28  and  C_29 
REMARK   10  A    between atoms: C_29  and  C_30 
REMARK   11  A    between atoms: C_30  and  C_31 
REMARK   12  A    between atoms: C_31  and  O_33 
REMARK   13  A    between atoms: C_42  and  C_43 
REMARK   14  A    between atoms: C_43  and  C_44 
REMARK   15  A    between atoms: C_44  and  C_45 
REMARK   16  A    between atoms: C_45  and  O_47 
ROOT
HETATM    1  C   UNK     0      11.496  18.401  -9.323  0.00  0.00     0.051 C 
HETATM    2  C   UNK     0      12.228  19.707  -9.089  0.00  0.00    -0.031 A 
HETATM    3  C   UNK     0      11.716  20.967  -8.825  0.00  0.00     0.021 A 
HETATM    4  N   UNK     0      12.741  21.846  -8.717  0.00  0.00    -0.361 N 
HETATM    5  C   UNK     0      13.895  21.172  -8.899  0.00  0.00     0.022 A 
HETATM    6  C   UNK     0      13.611  19.831  -9.137  0.00  0.00    -0.027 A 
HETATM    7  C   UNK     0      15.308  21.655  -8.789  0.00  0.00     0.115 C 
HETATM    8  C   UNK     0      15.625  22.573  -7.622  0.00  0.00     0.021 A 
HETATM    9  N   UNK     0      15.127  22.544  -6.376  0.00  0.00    -0.361 N 
HETATM   10  C   UNK     0      15.622  23.604  -5.702  0.00  0.00     0.022 A 
HETATM   11  C   UNK     0      16.469  24.330  -6.534  0.00  0.00    -0.027 A 
HETATM   12  C   UNK     0      16.476  23.686  -7.745  0.00  0.00    -0.031 A 
HETATM   13  C   UNK     0      17.267  24.116  -8.959  0.00  0.00     0.051 C 
HETATM   14  C   UNK     0      15.276  24.003  -4.270  0.00  0.00     0.115 C 
HETATM   15  C   UNK     0      13.804  24.319  -4.058  0.00  0.00     0.021 A 
HETATM   16  N   UNK     0      12.751  23.509  -4.274  0.00  0.00    -0.361 N 
HETATM   17  C   UNK     0      11.623  24.182  -4.035  0.00  0.00     0.022 A 
HETATM   18  C   UNK     0      11.958  25.490  -3.634  0.00  0.00    -0.027 A 
HETATM   19  C   UNK     0      13.327  25.563  -3.651  0.00  0.00    -0.031 A 
HETATM   20  C   UNK     0      14.112  26.798  -3.248  0.00  0.00     0.051 C 
HETATM   21  C   UNK     0      10.182  23.753  -4.196  0.00  0.00     0.115 C 
HETATM   22  C   UNK     0       9.860  22.805  -5.327  0.00  0.00     0.022 A 
HETATM   23  N   UNK     0      10.343  22.807  -6.576  0.00  0.00    -0.361 N 
HETATM   24  C   UNK     0       9.899  21.700  -7.205  0.00  0.00     0.021 A 
HETATM   25  C   UNK     0       9.101  20.973  -6.343  0.00  0.00    -0.031 A 
HETATM   26  C   UNK     0       8.346  19.685  -6.600  0.00  0.00     0.051 C 
HETATM   27  C   UNK     0       9.060  21.660  -5.135  0.00  0.00    -0.027 A 
HETATM   28  C   UNK     0      10.252  21.219  -8.601  0.00  0.00     0.115 C 
HETATM   29  H   UNK     0      12.640  22.944  -8.553  0.00  0.00     0.165 HD
HETATM   30  H   UNK     0      14.465  21.749  -5.954  0.00  0.00     0.165 HD
HETATM   31  H   UNK     0      12.804  22.425  -4.556  0.00  0.00     0.165 HD
HETATM   32  H   UNK     0      10.969  23.613  -7.040  0.00  0.00     0.165 HD
ENDROOT
BRANCH   6  33
HETATM   33  C   UNK     0      14.541  18.675  -9.405  0.00  0.00     0.051 C 
BRANCH  33  34
HETATM   34  C   UNK     0      14.024  17.825 -10.542  0.00  0.00     0.114 C 
BRANCH  34  35
HETATM   35  C   UNK     0      15.077  16.818 -10.860  0.00  0.00     0.139 C 
HETATM   36  O   UNK     0      14.794  15.585 -10.879  0.00  0.00    -0.650 OA
BRANCH  35  37
HETATM   37  O   UNK     0      16.389  17.172 -11.149  0.00  0.00    -0.776 OA
HETATM   38  H   UNK     0      17.155  16.529 -11.026  0.00  0.00     0.167 HD
ENDBRANCH  35  37
ENDBRANCH  34  35
ENDBRANCH  33  34
ENDBRANCH   6  33
BRANCH  27  39
HETATM   39  C   UNK     0       8.237  21.217  -3.977  0.00  0.00     0.051 C 
BRANCH  39  40
HETATM   40  C   UNK     0       6.834  21.630  -3.925  0.00  0.00     0.114 C 
BRANCH  40  41
HETATM   41  C   UNK     0       5.783  20.870  -4.562  0.00  0.00     0.139 C 
HETATM   42  O   UNK     0       4.712  21.367  -4.936  0.00  0.00    -0.650 OA
BRANCH  41  43
HETATM   43  O   UNK     0       5.971  19.476  -4.778  0.00  0.00    -0.776 OA
HETATM   44  H   UNK     0       5.378  18.880  -4.212  0.00  0.00     0.167 HD
ENDBRANCH  41  43
ENDBRANCH  40  41
ENDBRANCH  39  40
ENDBRANCH  27  39
BRANCH  11  45
HETATM   45  C   UNK     0      17.252  25.577  -6.223  0.00  0.00     0.051 C 
BRANCH  45  46
HETATM   46  C   UNK     0      18.199  25.432  -5.088  0.00  0.00     0.114 C 
BRANCH  46  47
HETATM   47  C   UNK     0      19.482  26.071  -5.499  0.00  0.00     0.139 C 
HETATM   48  O   UNK     0      19.447  27.208  -5.989  0.00  0.00    -0.650 OA
BRANCH  47  49
HETATM   49  O   UNK     0      20.676  25.415  -5.339  0.00  0.00    -0.776 OA
HETATM   50  H   UNK     0      21.300  25.218  -6.131  0.00  0.00     0.167 HD
ENDBRANCH  47  49
ENDBRANCH  46  47
ENDBRANCH  45  46
ENDBRANCH  11  45
BRANCH  18  51
HETATM   51  C   UNK     0      11.025  26.604  -3.235  0.00  0.00     0.051 C 
BRANCH  51  52
HETATM   52  C   UNK     0      10.028  25.997  -2.259  0.00  0.00     0.114 C 
BRANCH  52  53
HETATM   53  C   UNK     0       8.722  26.681  -2.311  0.00  0.00     0.139 C 
HETATM   54  O   UNK     0       8.114  26.779  -3.389  0.00  0.00    -0.650 OA
BRANCH  53  55
HETATM   55  O   UNK     0       8.186  27.210  -1.162  0.00  0.00    -0.776 OA
HETATM   56  H   UNK     0       7.252  27.095  -0.846  0.00  0.00     0.167 HD
ENDBRANCH  53  55
ENDBRANCH  52  53
ENDBRANCH  51  52
ENDBRANCH  18  51
TORSDOF 16
ENDMDL
MODEL 8
REMARK VINA RESULT:      -8.2     24.614     28.018
REMARK  16 active torsions:
REMARK  status: ('A' for Active; 'I' for Inactive)
REMARK    1  A    between atoms: C_6  and  C_7 
REMARK    2  A    between atoms: C_7  and  C_8 
REMARK    3  A    between atoms: C_8  and  C_9 
REMARK    4  A    between atoms: C_9  and  O_11 
REMARK    5  A    between atoms: C_16  and  C_17 
REMARK    6  A    between atoms: C_17  and  C_18 
REMARK    7  A    between atoms: C_18  and  C_19 
REMARK    8  A    between atoms: C_19  and  O_21 
REMARK    9  A    between atoms: C_28  and  C_29 
REMARK   10  A    between atoms: C_29  and  C_30 
REMARK   11  A    between atoms: C_30  and  C_31 
REMARK   12  A    between atoms: C_31  and  O_33 
REMARK   13  A    between atoms: C_42  and  C_43 
REMARK   14  A    between atoms: C_43  and  C_44 
REMARK   15  A    between atoms: C_44  and  C_45 
REMARK   16  A    between atoms: C_45  and  O_47 
ROOT
HETATM    1  C   UNK     0      16.532  -4.170   9.035  0.00  0.00     0.051 C 
HETATM    2  C   UNK     0      16.830  -3.046   8.063  0.00  0.00    -0.031 A 
HETATM    3  C   UNK     0      17.738  -3.006   7.016  0.00  0.00     0.021 A 
HETATM    4  N   UNK     0      17.687  -1.784   6.435  0.00  0.00    -0.361 N 
HETATM    5  C   UNK     0      16.762  -1.047   7.084  0.00  0.00     0.022 A 
HETATM    6  C   UNK     0      16.208  -1.806   8.110  0.00  0.00    -0.027 A 
HETATM    7  C   UNK     0      16.258   0.329   6.781  0.00  0.00     0.115 C 
HETATM    8  C   UNK     0      15.995   0.653   5.321  0.00  0.00     0.021 A 
HETATM    9  N   UNK     0      15.524  -0.153   4.357  0.00  0.00    -0.361 N 
HETATM   10  C   UNK     0      15.540   0.531   3.194  0.00  0.00     0.022 A 
HETATM   11  C   UNK     0      16.027   1.816   3.415  0.00  0.00    -0.027 A 
HETATM   12  C   UNK     0      16.315   1.900   4.754  0.00  0.00    -0.031 A 
HETATM   13  C   UNK     0      16.867   3.121   5.454  0.00  0.00     0.051 C 
HETATM   14  C   UNK     0      15.150  -0.014   1.822  0.00  0.00     0.115 C 
HETATM   15  C   UNK     0      16.000  -1.187   1.361  0.00  0.00     0.021 A 
HETATM   16  N   UNK     0      16.171  -2.371   1.979  0.00  0.00    -0.361 N 
HETATM   17  C   UNK     0      17.049  -3.102   1.289  0.00  0.00     0.022 A 
HETATM   18  C   UNK     0      17.462  -2.364   0.163  0.00  0.00    -0.027 A 
HETATM   19  C   UNK     0      16.797  -1.167   0.219  0.00  0.00    -0.031 A 
HETATM   20  C   UNK     0      16.927  -0.079  -0.832  0.00  0.00     0.051 C 
HETATM   21  C   UNK     0      17.632  -4.464   1.594  0.00  0.00     0.115 C 
HETATM   22  C   UNK     0      17.857  -4.816   3.046  0.00  0.00     0.022 A 
HETATM   23  N   UNK     0      18.321  -4.033   4.028  0.00  0.00    -0.361 N 
HETATM   24  C   UNK     0      18.223  -4.708   5.191  0.00  0.00     0.021 A 
HETATM   25  C   UNK     0      17.692  -5.961   4.950  0.00  0.00    -0.031 A 
HETATM   26  C   UNK     0      17.430  -7.089   5.926  0.00  0.00     0.051 C 
HETATM   27  C   UNK     0      17.450  -6.054   3.584  0.00  0.00    -0.027 A 
HETATM   28  C   UNK     0      18.538  -4.204   6.588  0.00  0.00     0.115 C 
HETATM   29  H   UNK     0      18.334  -1.437   5.597  0.00  0.00     0.165 HD
HETATM   30  H   UNK     0      15.131  -1.189   4.504  0.00  0.00     0.165 HD
HETATM   31  H   UNK     0      15.626  -2.717   2.895  0.00  0.00     0.165 HD
HETATM   32  H   UNK     0      18.764  -3.010   3.903  0.00  0.00     0.165 HD
ENDROOT
BRANCH   6  33
HETATM   33  C   UNK     0      15.148  -1.445   9.120  0.00  0.00     0.051 C 
BRANCH  33  34
HETATM   34  C   UNK     0      15.762  -0.763  10.320  0.00  0.00     0.114 C 
BRANCH  34  35
HETATM   35  C   UNK     0      14.785  -0.869  11.442  0.00  0.00     0.139 C 
HETATM   36  O   UNK     0      15.132  -0.562  12.619  0.00  0.00    -0.650 OA
BRANCH  35  37
HETATM   37  O   UNK     0      13.476  -1.298  11.257  0.00  0.00    -0.776 OA
HETATM   38  H   UNK     0      13.246  -2.269  11.121  0.00  0.00     0.167 HD
ENDBRANCH  35  37
ENDBRANCH  34  35
ENDBRANCH  33  34
ENDBRANCH   6  33
BRANCH  27  39
HETATM   39  C   UNK     0      16.940  -7.291   2.934  0.00  0.00     0.051 C 
BRANCH  39  40
HETATM   40  C   UNK     0      15.505  -7.565   2.990  0.00  0.00     0.114 C 
BRANCH  40  41
HETATM   41  C   UNK     0      14.981  -8.891   3.231  0.00  0.00     0.139 C 
HETATM   42  O   UNK     0      15.239  -9.553   4.245  0.00  0.00    -0.650 OA
BRANCH  41  43
HETATM   43  O   UNK     0      14.122  -9.481   2.262  0.00  0.00    -0.776 OA
HETATM   44  H   UNK     0      14.044  -8.959   1.397  0.00  0.00     0.167 HD
ENDBRANCH  41  43
ENDBRANCH  40  41
ENDBRANCH  39  40
ENDBRANCH  27  39
BRANCH  11  45
HETATM   45  C   UNK     0      16.218   2.934   2.426  0.00  0.00     0.051 C 
BRANCH  45  46
HETATM   46  C   UNK     0      17.524   2.901   1.720  0.00  0.00     0.114 C 
BRANCH  46  47
HETATM   47  C   UNK     0      18.219   4.187   2.016  0.00  0.00     0.139 C 
HETATM   48  O   UNK     0      19.399   4.318   1.663  0.00  0.00    -0.650 OA
BRANCH  47  49
HETATM   49  O   UNK     0      17.568   5.204   2.668  0.00  0.00    -0.776 OA
HETATM   50  H   UNK     0      17.523   6.156   2.286  0.00  0.00     0.167 HD
ENDBRANCH  47  49
ENDBRANCH  46  47
ENDBRANCH  45  46
ENDBRANCH  11  45
BRANCH  18  51
HETATM   51  C   UNK     0      18.423  -2.785  -0.919  0.00  0.00     0.051 C 
BRANCH  51  52
HETATM   52  C   UNK     0      17.576  -3.086  -2.147  0.00  0.00     0.114 C 
BRANCH  52  53
HETATM   53  C   UNK     0      18.125  -2.454  -3.362  0.00  0.00     0.139 C 
HETATM   54  O   UNK     0      17.377  -1.824  -4.127  0.00  0.00    -0.650 OA
BRANCH  53  55
HETATM   55  O   UNK     0      19.464  -2.572  -3.643  0.00  0.00    -0.776 OA
HETATM   56  H   UNK     0      20.011  -3.396  -3.551  0.00  0.00     0.167 HD
ENDBRANCH  53  55
ENDBRANCH  52  53
ENDBRANCH  51  52
ENDBRANCH  18  51
TORSDOF 16
ENDMDL
MODEL 9
REMARK VINA RESULT:      -8.2     11.587     15.048
REMARK  16 active torsions:
REMARK  status: ('A' for Active; 'I' for Inactive)
REMARK    1  A    between atoms: C_6  and  C_7 
REMARK    2  A    between atoms: C_7  and  C_8 
REMARK    3  A    between atoms: C_8  and  C_9 
REMARK    4  A    between atoms: C_9  and  O_11 
REMARK    5  A    between atoms: C_16  and  C_17 
REMARK    6  A    between atoms: C_17  and  C_18 
REMARK    7  A    between atoms: C_18  and  C_19 
REMARK    8  A    between atoms: C_19  and  O_21 
REMARK    9  A    between atoms: C_28  and  C_29 
REMARK   10  A    between atoms: C_29  and  C_30 
REMARK   11  A    between atoms: C_30  and  C_31 
REMARK   12  A    between atoms: C_31  and  O_33 
REMARK   13  A    between atoms: C_42  and  C_43 
REMARK   14  A    between atoms: C_43  and  C_44 
REMARK   15  A    between atoms: C_44  and  C_45 
REMARK   16  A    between atoms: C_45  and  O_47 
ROOT
HETATM    1  C   UNK     0      23.331  11.213  -4.606  0.00  0.00     0.051 C 
HETATM    2  C   UNK     0      23.185  12.717  -4.501  0.00  0.00    -0.031 A 
HETATM    3  C   UNK     0      22.773  13.489  -3.425  0.00  0.00     0.021 A 
HETATM    4  N   UNK     0      22.764  14.791  -3.794  0.00  0.00    -0.361 N 
HETATM    5  C   UNK     0      23.169  14.868  -5.079  0.00  0.00     0.022 A 
HETATM    6  C   UNK     0      23.438  13.589  -5.553  0.00  0.00    -0.027 A 
HETATM    7  C   UNK     0      23.421  16.076  -5.927  0.00  0.00     0.115 C 
HETATM    8  C   UNK     0      24.149  17.233  -5.266  0.00  0.00     0.021 A 
HETATM    9  N   UNK     0      25.130  17.191  -4.351  0.00  0.00    -0.361 N 
HETATM   10  C   UNK     0      25.411  18.458  -3.979  0.00  0.00     0.022 A 
HETATM   11  C   UNK     0      24.596  19.341  -4.681  0.00  0.00    -0.027 A 
HETATM   12  C   UNK     0      23.799  18.576  -5.494  0.00  0.00    -0.031 A 
HETATM   13  C   UNK     0      22.754  19.111  -6.448  0.00  0.00     0.051 C 
HETATM   14  C   UNK     0      26.417  18.882  -2.913  0.00  0.00     0.115 C 
HETATM   15  C   UNK     0      26.106  18.345  -1.525  0.00  0.00     0.021 A 
HETATM   16  N   UNK     0      25.985  17.058  -1.150  0.00  0.00    -0.361 N 
HETATM   17  C   UNK     0      25.638  17.007   0.138  0.00  0.00     0.022 A 
HETATM   18  C   UNK     0      25.537  18.325   0.628  0.00  0.00    -0.027 A 
HETATM   19  C   UNK     0      25.835  19.153  -0.422  0.00  0.00    -0.031 A 
HETATM   20  C   UNK     0      25.879  20.666  -0.317  0.00  0.00     0.051 C 
HETATM   21  C   UNK     0      25.311  15.817   1.010  0.00  0.00     0.115 C 
HETATM   22  C   UNK     0      24.626  14.640   0.356  0.00  0.00     0.022 A 
HETATM   23  N   UNK     0      23.650  14.652  -0.561  0.00  0.00    -0.361 N 
HETATM   24  C   UNK     0      23.440  13.386  -0.974  0.00  0.00     0.021 A 
HETATM   25  C   UNK     0      24.295  12.536  -0.298  0.00  0.00    -0.031 A 
HETATM   26  C   UNK     0      24.407  11.028  -0.387  0.00  0.00     0.051 C 
HETATM   27  C   UNK     0      25.063  13.315   0.559  0.00  0.00    -0.027 A 
HETATM   28  C   UNK     0      22.500  12.908  -2.067  0.00  0.00     0.115 C 
HETATM   29  H   UNK     0      22.434  15.644  -3.157  0.00  0.00     0.165 HD
HETATM   30  H   UNK     0      25.660  16.271  -4.001  0.00  0.00     0.165 HD
HETATM   31  H   UNK     0      26.195  16.165  -1.794  0.00  0.00     0.165 HD
HETATM   32  H   UNK     0      23.069  15.551  -0.895  0.00  0.00     0.165 HD
ENDROOT
BRANCH   6  33
HETATM   33  C   UNK     0      23.909  13.136  -6.912  0.00  0.00     0.051 C 
BRANCH  33  34
HETATM   34  C   UNK     0      22.736  12.918  -7.839  0.00  0.00     0.114 C 
BRANCH  34  35
HETATM   35  C   UNK     0      23.071  13.563  -9.141  0.00  0.00     0.139 C 
HETATM   36  O   UNK     0      24.267  13.880  -9.407  0.00  0.00    -0.650 OA
BRANCH  35  37
HETATM   37  O   UNK     0      22.112  13.840 -10.108  0.00  0.00    -0.776 OA
HETATM   38  H   UNK     0      21.975  14.768 -10.474  0.00  0.00     0.167 HD
ENDBRANCH  35  37
ENDBRANCH  34  35
ENDBRANCH  33  34
ENDBRANCH   6  33
BRANCH  27  39
HETATM   39  C   UNK     0      26.054  12.740   1.508  0.00  0.00     0.051 C 
BRANCH  39  40
HETATM   40  C   UNK     0      27.445  12.618   1.071  0.00  0.00     0.114 C 
BRANCH  40  41
HETATM   41  C   UNK     0      27.902  13.141  -0.197  0.00  0.00     0.139 C 
HETATM   42  O   UNK     0      27.936  12.474  -1.239  0.00  0.00    -0.650 OA
BRANCH  41  43
HETATM   43  O   UNK     0      28.342  14.494  -0.268  0.00  0.00    -0.776 OA
HETATM   44  H   UNK     0      29.260  14.657   0.129  0.00  0.00     0.167 HD
ENDBRANCH  41  43
ENDBRANCH  40  41
ENDBRANCH  39  40
ENDBRANCH  27  39
BRANCH  11  45
HETATM   45  C   UNK     0      24.553  20.843  -4.609  0.00  0.00     0.051 C 
BRANCH  45  46
HETATM   46  C   UNK     0      23.756  21.373  -3.473  0.00  0.00     0.114 C 
BRANCH  46  47
HETATM   47  C   UNK     0      22.521  21.980  -4.047  0.00  0.00     0.139 C 
HETATM   48  O   UNK     0      22.639  22.882  -4.888  0.00  0.00    -0.650 OA
BRANCH  47  49
HETATM   49  O   UNK     0      21.279  21.552  -3.652  0.00  0.00    -0.776 OA
HETATM   50  H   UNK     0      20.973  20.579  -3.773  0.00  0.00     0.167 HD
ENDBRANCH  47  49
ENDBRANCH  46  47
ENDBRANCH  45  46
ENDBRANCH  11  45
BRANCH  18  51
HETATM   51  C   UNK     0      25.198  18.769   2.028  0.00  0.00     0.051 C 
BRANCH  51  52
HETATM   52  C   UNK     0      23.681  18.865   2.088  0.00  0.00     0.114 C 
BRANCH  52  53
HETATM   53  C   UNK     0      23.235  20.019   2.892  0.00  0.00     0.139 C 
HETATM   54  O   UNK     0      22.785  19.844   4.035  0.00  0.00    -0.650 OA
BRANCH  53  55
HETATM   55  O   UNK     0      23.317  21.286   2.366  0.00  0.00    -0.776 OA
HETATM   56  H   UNK     0      23.752  21.536   1.510  0.00  0.00     0.167 HD
ENDBRANCH  53  55
ENDBRANCH  52  53
ENDBRANCH  51  52
ENDBRANCH  18  51
TORSDOF 16
ENDMDL
MODEL 10
REMARK VINA RESULT:      -8.1     25.067     28.658
REMARK  16 active torsions:
REMARK  status: ('A' for Active; 'I' for Inactive)
REMARK    1  A    between atoms: C_6  and  C_7 
REMARK    2  A    between atoms: C_7  and  C_8 
REMARK    3  A    between atoms: C_8  and  C_9 
REMARK    4  A    between atoms: C_9  and  O_11 
REMARK    5  A    between atoms: C_16  and  C_17 
REMARK    6  A    between atoms: C_17  and  C_18 
REMARK    7  A    between atoms: C_18  and  C_19 
REMARK    8  A    between atoms: C_19  and  O_21 
REMARK    9  A    between atoms: C_28  and  C_29 
REMARK   10  A    between atoms: C_29  and  C_30 
REMARK   11  A    between atoms: C_30  and  C_31 
REMARK   12  A    between atoms: C_31  and  O_33 
REMARK   13  A    between atoms: C_42  and  C_43 
REMARK   14  A    between atoms: C_43  and  C_44 
REMARK   15  A    between atoms: C_44  and  C_45 
REMARK   16  A    between atoms: C_45  and  O_47 
ROOT
HETATM    1  C   UNK     0      16.376   2.970   2.695  0.00  0.00     0.051 C 
HETATM    2  C   UNK     0      16.316   1.862   3.727  0.00  0.00    -0.031 A 
HETATM    3  C   UNK     0      15.769   0.593   3.624  0.00  0.00     0.021 A 
HETATM    4  N   UNK     0      15.916  -0.048   4.807  0.00  0.00    -0.361 N 
HETATM    5  C   UNK     0      16.553   0.781   5.659  0.00  0.00     0.022 A 
HETATM    6  C   UNK     0      16.815   1.986   5.017  0.00  0.00    -0.027 A 
HETATM    7  C   UNK     0      17.037   0.526   7.053  0.00  0.00     0.115 C 
HETATM    8  C   UNK     0      17.709  -0.811   7.307  0.00  0.00     0.021 A 
HETATM    9  N   UNK     0      18.501  -1.518   6.485  0.00  0.00    -0.361 N 
HETATM   10  C   UNK     0      18.796  -2.688   7.091  0.00  0.00     0.022 A 
HETATM   11  C   UNK     0      18.185  -2.732   8.341  0.00  0.00    -0.027 A 
HETATM   12  C   UNK     0      17.499  -1.552   8.483  0.00  0.00    -0.031 A 
HETATM   13  C   UNK     0      16.685  -1.155   9.694  0.00  0.00     0.051 C 
HETATM   14  C   UNK     0      19.617  -3.829   6.498  0.00  0.00     0.115 C 
HETATM   15  C   UNK     0      19.023  -4.421   5.230  0.00  0.00     0.021 A 
HETATM   16  N   UNK     0      18.747  -3.784   4.077  0.00  0.00    -0.361 N 
HETATM   17  C   UNK     0      18.168  -4.639   3.231  0.00  0.00     0.022 A 
HETATM   18  C   UNK     0      18.071  -5.896   3.860  0.00  0.00    -0.027 A 
HETATM   19  C   UNK     0      18.610  -5.747   5.111  0.00  0.00    -0.031 A 
HETATM   20  C   UNK     0      18.738  -6.877   6.115  0.00  0.00     0.051 C 
HETATM   21  C   UNK     0      17.607  -4.406   1.846  0.00  0.00     0.115 C 
HETATM   22  C   UNK     0      16.975  -3.063   1.566  0.00  0.00     0.022 A 
HETATM   23  N   UNK     0      16.186  -2.335   2.367  0.00  0.00    -0.361 N 
HETATM   24  C   UNK     0      15.969  -1.142   1.776  0.00  0.00     0.021 A 
HETATM   25  C   UNK     0      16.626  -1.106   0.561  0.00  0.00    -0.031 A 
HETATM   26  C   UNK     0      16.649  -0.004  -0.477  0.00  0.00     0.051 C 
HETATM   27  C   UNK     0      17.277  -2.324   0.405  0.00  0.00    -0.027 A 
HETATM   28  C   UNK     0      15.213   0.050   2.338  0.00  0.00     0.115 C 
HETATM   29  H   UNK     0      15.534  -1.068   5.045  0.00  0.00     0.165 HD
HETATM   30  H   UNK     0      18.895  -1.174   5.498  0.00  0.00     0.165 HD
HETATM   31  H   UNK     0      19.010  -2.721   3.836  0.00  0.00     0.165 HD
HETATM   32  H   UNK     0      15.738  -2.672   3.338  0.00  0.00     0.165 HD
ENDROOT
BRANCH   6  33
HETATM   33  C   UNK     0      17.494   3.231   5.529  0.00  0.00     0.051 C 
BRANCH  33  34
HETATM   34  C   UNK     0      18.992   3.128   5.371  0.00  0.00     0.114 C 
BRANCH  34  35
HETATM   35  C   UNK     0      19.606   3.491   6.681  0.00  0.00     0.139 C 
HETATM   36  O   UNK     0      19.854   2.594   7.539  0.00  0.00    -0.650 OA
BRANCH  35  37
HETATM   37  O   UNK     0      19.932   4.799   7.019  0.00  0.00    -0.776 OA
HETATM   38  H   UNK     0      19.318   5.378   7.568  0.00  0.00     0.167 HD
ENDBRANCH  35  37
ENDBRANCH  34  35
ENDBRANCH  33  34
ENDBRANCH   6  33
BRANCH  27  39
HETATM   39  C   UNK     0      18.036  -2.686  -0.823  0.00  0.00     0.051 C 
BRANCH  39  40
HETATM   40  C   UNK     0      17.328  -3.380  -1.898  0.00  0.00     0.114 C 
BRANCH  40  41
HETATM   41  C   UNK     0      16.792  -2.682  -3.045  0.00  0.00     0.139 C 
HETATM   42  O   UNK     0      17.374  -1.745  -3.608  0.00  0.00    -0.650 OA
BRANCH  41  43
HETATM   43  O   UNK     0      15.529  -3.079  -3.567  0.00  0.00    -0.776 OA
HETATM   44  H   UNK     0      14.736  -2.809  -2.998  0.00  0.00     0.167 HD
ENDBRANCH  41  43
ENDBRANCH  40  41
ENDBRANCH  39  40
ENDBRANCH  27  39
BRANCH  11  45
HETATM   45  C   UNK     0      18.232  -3.824   9.375  0.00  0.00     0.051 C 
BRANCH  45  46
HETATM   46  C   UNK     0      17.131  -4.815   9.262  0.00  0.00     0.114 C 
BRANCH  46  47
HETATM   47  C   UNK     0      16.398  -4.811  10.560  0.00  0.00     0.139 C 
HETATM   48  O   UNK     0      15.325  -4.196  10.633  0.00  0.00    -0.650 OA
BRANCH  47  49
HETATM   49  O   UNK     0      16.900  -5.472  11.653  0.00  0.00    -0.776 OA
HETATM   50  H   UNK     0      17.881  -5.378  11.944  0.00  0.00     0.167 HD
ENDBRANCH  47  49
ENDBRANCH  46  47
ENDBRANCH  45  46
ENDBRANCH  11  45
BRANCH  18  51
HETATM   51  C   UNK     0      17.513  -7.175   3.291  0.00  0.00     0.051 C 
BRANCH  51  52
HETATM   52  C   UNK     0      16.050  -7.224   3.707  0.00  0.00     0.114 C 
BRANCH  52  53
HETATM   53  C   UNK     0      15.350  -8.382   3.119  0.00  0.00     0.139 C 
HETATM   54  O   UNK     0      15.167  -8.441   1.893  0.00  0.00    -0.650 OA
BRANCH  53  55
HETATM   55  O   UNK     0      14.901  -9.391   3.936  0.00  0.00    -0.776 OA
HETATM   56  H   UNK     0      14.315  -9.281   4.731  0.00  0.00     0.167 HD
ENDBRANCH  53  55
ENDBRANCH  52  53
ENDBRANCH  51  52
ENDBRANCH  18  51
TORSDOF 16
ENDMDL
MODEL 11
REMARK VINA RESULT:      -8.1     26.314     29.716
REMARK  16 active torsions:
REMARK  status: ('A' for Active; 'I' for Inactive)
REMARK    1  A    between atoms: C_6  and  C_7 
REMARK    2  A    between atoms: C_7  and  C_8 
REMARK    3  A    between atoms: C_8  and  C_9 
REMARK    4  A    between atoms: C_9  and  O_11 
REMARK    5  A    between atoms: C_16  and  C_17 
REMARK    6  A    between atoms: C_17  and  C_18 
REMARK    7  A    between atoms: C_18  and  C_19 
REMARK    8  A    between atoms: C_19  and  O_21 
REMARK    9  A    between atoms: C_28  and  C_29 
REMARK   10  A    between atoms: C_29  and  C_30 
REMARK   11  A    between atoms: C_30  and  C_31 
REMARK   12  A    between atoms: C_31  and  O_33 
REMARK   13  A    between atoms: C_42  and  C_43 
REMARK   14  A    between atoms: C_43  and  C_44 
REMARK   15  A    between atoms: C_44  and  C_45 
REMARK   16  A    between atoms: C_45  and  O_47 
ROOT
HETATM    1  C   UNK     0     -11.030  17.848   6.915  0.00  0.00     0.051 C 
HETATM    2  C   UNK     0     -10.538  17.403   8.277  0.00  0.00    -0.031 A 
HETATM    3  C   UNK     0      -9.423  17.817   8.988  0.00  0.00     0.021 A 
HETATM    4  N   UNK     0      -9.359  17.125  10.151  0.00  0.00    -0.361 N 
HETATM    5  C   UNK     0     -10.414  16.285  10.200  0.00  0.00     0.022 A 
HETATM    6  C   UNK     0     -11.171  16.431   9.042  0.00  0.00    -0.027 A 
HETATM    7  C   UNK     0     -10.856  15.375  11.303  0.00  0.00     0.115 C 
HETATM    8  C   UNK     0     -10.794  15.933  12.713  0.00  0.00     0.021 A 
HETATM    9  N   UNK     0     -11.032  17.187  13.127  0.00  0.00    -0.361 N 
HETATM   10  C   UNK     0     -10.767  17.249  14.450  0.00  0.00     0.022 A 
HETATM   11  C   UNK     0     -10.357  15.999  14.902  0.00  0.00    -0.027 A 
HETATM   12  C   UNK     0     -10.372  15.165  13.813  0.00  0.00    -0.031 A 
HETATM   13  C   UNK     0     -10.003  13.698  13.830  0.00  0.00     0.051 C 
HETATM   14  C   UNK     0     -10.839  18.497  15.326  0.00  0.00     0.115 C 
HETATM   15  C   UNK     0      -9.894  19.607  14.895  0.00  0.00     0.021 A 
HETATM   16  N   UNK     0      -9.849  20.231  13.703  0.00  0.00    -0.361 N 
HETATM   17  C   UNK     0      -8.832  21.095  13.698  0.00  0.00     0.022 A 
HETATM   18  C   UNK     0      -8.189  21.039  14.951  0.00  0.00    -0.027 A 
HETATM   19  C   UNK     0      -8.865  20.104  15.692  0.00  0.00    -0.031 A 
HETATM   20  C   UNK     0      -8.520  19.755  17.128  0.00  0.00     0.051 C 
HETATM   21  C   UNK     0      -8.314  21.981  12.588  0.00  0.00     0.115 C 
HETATM   22  C   UNK     0      -8.409  21.456  11.175  0.00  0.00     0.022 A 
HETATM   23  N   UNK     0      -8.183  20.212  10.734  0.00  0.00    -0.361 N 
HETATM   24  C   UNK     0      -8.527  20.154   9.432  0.00  0.00     0.021 A 
HETATM   25  C   UNK     0      -8.976  21.394   9.021  0.00  0.00    -0.031 A 
HETATM   26  C   UNK     0      -9.433  21.835   7.646  0.00  0.00     0.051 C 
HETATM   27  C   UNK     0      -8.910  22.245  10.119  0.00  0.00    -0.027 A 
HETATM   28  C   UNK     0      -8.534  18.936   8.526  0.00  0.00     0.115 C 
HETATM   29  H   UNK     0      -8.548  17.206  10.910  0.00  0.00     0.165 HD
HETATM   30  H   UNK     0     -11.434  18.019  12.499  0.00  0.00     0.165 HD
HETATM   31  H   UNK     0     -10.578  20.094  12.863  0.00  0.00     0.165 HD
HETATM   32  H   UNK     0      -7.736  19.373  11.329  0.00  0.00     0.165 HD
ENDROOT
BRANCH   6  33
HETATM   33  C   UNK     0     -12.432  15.725   8.612  0.00  0.00     0.051 C 
BRANCH  33  34
HETATM   34  C   UNK     0     -13.650  16.407   9.188  0.00  0.00     0.114 C 
BRANCH  34  35
HETATM   35  C   UNK     0     -14.344  17.104   8.067  0.00  0.00     0.139 C 
HETATM   36  O   UNK     0     -14.732  18.301   8.204  0.00  0.00    -0.650 OA
BRANCH  35  37
HETATM   37  O   UNK     0     -14.592  16.493   6.844  0.00  0.00    -0.776 OA
HETATM   38  H   UNK     0     -14.931  15.547   6.778  0.00  0.00     0.167 HD
ENDBRANCH  35  37
ENDBRANCH  34  35
ENDBRANCH  33  34
ENDBRANCH   6  33
BRANCH  27  39
HETATM   39  C   UNK     0      -9.248  23.692  10.045  0.00  0.00     0.051 C 
BRANCH  39  40
HETATM   40  C   UNK     0      -8.167  24.645   9.797  0.00  0.00     0.114 C 
BRANCH  40  41
HETATM   41  C   UNK     0      -8.347  26.072   9.950  0.00  0.00     0.139 C 
HETATM   42  O   UNK     0      -9.266  26.706   9.413  0.00  0.00    -0.650 OA
BRANCH  41  43
HETATM   43  O   UNK     0      -7.429  26.802  10.756  0.00  0.00    -0.776 OA
HETATM   44  H   UNK     0      -6.798  26.225  11.300  0.00  0.00     0.167 HD
ENDBRANCH  41  43
ENDBRANCH  40  41
ENDBRANCH  39  40
ENDBRANCH  27  39
BRANCH  11  45
HETATM   45  C   UNK     0      -9.966  15.582  16.294  0.00  0.00     0.051 C 
BRANCH  45  46
HETATM   46  C   UNK     0      -8.754  16.265  16.813  0.00  0.00     0.114 C 
BRANCH  46  47
HETATM   47  C   UNK     0      -7.632  15.285  16.745  0.00  0.00     0.139 C 
HETATM   48  O   UNK     0      -7.004  15.030  17.782  0.00  0.00    -0.650 OA
BRANCH  47  49
HETATM   49  O   UNK     0      -7.300  14.679  15.559  0.00  0.00    -0.776 OA
HETATM   50  H   UNK     0      -7.687  14.989  14.661  0.00  0.00     0.167 HD
ENDBRANCH  47  49
ENDBRANCH  46  47
ENDBRANCH  45  46
ENDBRANCH  11  45
BRANCH  18  51
HETATM   51  C   UNK     0      -7.009  21.848  15.424  0.00  0.00     0.051 C 
BRANCH  51  52
HETATM   52  C   UNK     0      -7.481  23.292  15.491  0.00  0.00     0.114 C 
BRANCH  52  53
HETATM   53  C   UNK     0      -7.758  23.717  16.877  0.00  0.00     0.139 C 
HETATM   54  O   UNK     0      -8.113  24.883  17.110  0.00  0.00    -0.650 OA
BRANCH  53  55
HETATM   55  O   UNK     0      -7.618  22.816  17.904  0.00  0.00    -0.776 OA
HETATM   56  H   UNK     0      -7.442  21.843  17.808  0.00  0.00     0.167 HD
ENDBRANCH  53  55
ENDBRANCH  52  53
ENDBRANCH  51  52
ENDBRANCH  18  51
TORSDOF 16
ENDMDL
MODEL 12
REMARK VINA RESULT:      -8.1     11.899     16.802
REMARK  16 active torsions:
REMARK  status: ('A' for Active; 'I' for Inactive)
REMARK    1  A    between atoms: C_6  and  C_7 
REMARK    2  A    between atoms: C_7  and  C_8 
REMARK    3  A    between atoms: C_8  and  C_9 
REMARK    4  A    between atoms: C_9  and  O_11 
REMARK    5  A    between atoms: C_16  and  C_17 
REMARK    6  A    between atoms: C_17  and  C_18 
REMARK    7  A    between atoms: C_18  and  C_19 
REMARK    8  A    between atoms: C_19  and  O_21 
REMARK    9  A    between atoms: C_28  and  C_29 
REMARK   10  A    between atoms: C_29  and  C_30 
REMARK   11  A    between atoms: C_30  and  C_31 
REMARK   12  A    between atoms: C_31  and  O_33 
REMARK   13  A    between atoms: C_42  and  C_43 
REMARK   14  A    between atoms: C_43  and  C_44 
REMARK   15  A    between atoms: C_44  and  C_45 
REMARK   16  A    between atoms: C_45  and  O_47 
ROOT
HETATM    1  C   UNK     0      25.963  18.499   4.632  0.00  0.00     0.051 C 
HETATM    2  C   UNK     0      25.085  18.057   3.479  0.00  0.00    -0.031 A 
HETATM    3  C   UNK     0      24.459  18.821   2.507  0.00  0.00     0.021 A 
HETATM    4  N   UNK     0      23.749  18.004   1.693  0.00  0.00    -0.361 N 
HETATM    5  C   UNK     0      23.916  16.736   2.120  0.00  0.00     0.022 A 
HETATM    6  C   UNK     0      24.744  16.733   3.238  0.00  0.00    -0.027 A 
HETATM    7  C   UNK     0      23.425  15.456   1.518  0.00  0.00     0.115 C 
HETATM    8  C   UNK     0      23.531  15.328   0.009  0.00  0.00     0.021 A 
HETATM    9  N   UNK     0      24.490  15.797  -0.805  0.00  0.00    -0.361 N 
HETATM   10  C   UNK     0      24.127  15.530  -2.077  0.00  0.00     0.022 A 
HETATM   11  C   UNK     0      22.905  14.863  -2.083  0.00  0.00    -0.027 A 
HETATM   12  C   UNK     0      22.524  14.733  -0.772  0.00  0.00    -0.031 A 
HETATM   13  C   UNK     0      21.256  14.063  -0.293  0.00  0.00     0.051 C 
HETATM   14  C   UNK     0      24.887  15.939  -3.336  0.00  0.00     0.115 C 
HETATM   15  C   UNK     0      25.046  17.442  -3.498  0.00  0.00     0.021 A 
HETATM   16  N   UNK     0      25.637  18.302  -2.648  0.00  0.00    -0.361 N 
HETATM   17  C   UNK     0      25.507  19.544  -3.120  0.00  0.00     0.022 A 
HETATM   18  C   UNK     0      24.806  19.489  -4.341  0.00  0.00    -0.027 A 
HETATM   19  C   UNK     0      24.524  18.167  -4.568  0.00  0.00    -0.031 A 
HETATM   20  C   UNK     0      23.804  17.657  -5.803  0.00  0.00     0.051 C 
HETATM   21  C   UNK     0      25.928  20.863  -2.514  0.00  0.00     0.115 C 
HETATM   22  C   UNK     0      25.870  20.990  -1.010  0.00  0.00     0.022 A 
HETATM   23  N   UNK     0      24.930  20.529  -0.174  0.00  0.00    -0.361 N 
HETATM   24  C   UNK     0      25.349  20.737   1.091  0.00  0.00     0.021 A 
HETATM   25  C   UNK     0      26.585  21.354   1.069  0.00  0.00    -0.031 A 
HETATM   26  C   UNK     0      27.437  21.822   2.230  0.00  0.00     0.051 C 
HETATM   27  C   UNK     0      26.939  21.527  -0.264  0.00  0.00    -0.027 A 
HETATM   28  C   UNK     0      24.669  20.303   2.378  0.00  0.00     0.115 C 
HETATM   29  H   UNK     0      23.103  18.334   0.846  0.00  0.00     0.165 HD
HETATM   30  H   UNK     0      25.448  16.272  -0.481  0.00  0.00     0.165 HD
HETATM   31  H   UNK     0      26.200  18.023  -1.720  0.00  0.00     0.165 HD
HETATM   32  H   UNK     0      23.940  20.093  -0.470  0.00  0.00     0.165 HD
ENDROOT
BRANCH   6  33
HETATM   33  C   UNK     0      25.227  15.582   4.084  0.00  0.00     0.051 C 
BRANCH  33  34
HETATM   34  C   UNK     0      26.665  15.249   3.764  0.00  0.00     0.114 C 
BRANCH  34  35
HETATM   35  C   UNK     0      26.657  14.307   2.608  0.00  0.00     0.139 C 
HETATM   36  O   UNK     0      25.933  13.270   2.635  0.00  0.00    -0.650 OA
BRANCH  35  37
HETATM   37  O   UNK     0      27.424  14.514   1.467  0.00  0.00    -0.776 OA
HETATM   38  H   UNK     0      28.030  13.801   1.094  0.00  0.00     0.167 HD
ENDBRANCH  35  37
ENDBRANCH  34  35
ENDBRANCH  33  34
ENDBRANCH   6  33
BRANCH  27  39
HETATM   39  C   UNK     0      28.182  22.227  -0.689  0.00  0.00     0.051 C 
BRANCH  39  40
HETATM   40  C   UNK     0      29.434  21.471  -0.702  0.00  0.00     0.114 C 
BRANCH  40  41
HETATM   41  C   UNK     0      29.463  20.030  -0.815  0.00  0.00     0.139 C 
HETATM   42  O   UNK     0      29.725  19.276   0.132  0.00  0.00    -0.650 OA
BRANCH  41  43
HETATM   43  O   UNK     0      29.177  19.429  -2.073  0.00  0.00    -0.776 OA
HETATM   44  H   UNK     0      28.937  18.446  -2.024  0.00  0.00     0.167 HD
ENDBRANCH  41  43
ENDBRANCH  40  41
ENDBRANCH  39  40
ENDBRANCH  27  39
BRANCH  11  45
HETATM   45  C   UNK     0      22.113  14.359  -3.259  0.00  0.00     0.051 C 
BRANCH  45  46
HETATM   46  C   UNK     0      22.602  13.070  -3.811  0.00  0.00     0.114 C 
BRANCH  46  47
HETATM   47  C   UNK     0      23.104  13.341  -5.189  0.00  0.00     0.139 C 
HETATM   48  O   UNK     0      23.977  12.599  -5.658  0.00  0.00    -0.650 OA
BRANCH  47  49
HETATM   49  O   UNK     0      22.610  14.391  -5.922  0.00  0.00    -0.776 OA
HETATM   50  H   UNK     0      23.224  15.028  -6.443  0.00  0.00     0.167 HD
ENDBRANCH  47  49
ENDBRANCH  46  47
ENDBRANCH  45  46
ENDBRANCH  11  45
BRANCH  18  51
HETATM   51  C   UNK     0      24.443  20.632  -5.253  0.00  0.00     0.051 C 
BRANCH  51  52
HETATM   52  C   UNK     0      22.928  20.756  -5.199  0.00  0.00     0.114 C 
BRANCH  52  53
HETATM   53  C   UNK     0      22.494  21.781  -4.230  0.00  0.00     0.139 C 
HETATM   54  O   UNK     0      21.415  21.653  -3.630  0.00  0.00    -0.650 OA
BRANCH  53  55
HETATM   55  O   UNK     0      23.290  22.877  -3.999  0.00  0.00    -0.776 OA
HETATM   56  H   UNK     0      24.082  22.908  -3.401  0.00  0.00     0.167 HD
ENDBRANCH  53  55
ENDBRANCH  52  53
ENDBRANCH  51  52
ENDBRANCH  18  51
TORSDOF 16
ENDMDL
MODEL 13
REMARK VINA RESULT:      -8.1     27.071     30.294
REMARK  16 active torsions:
REMARK  status: ('A' for Active; 'I' for Inactive)
REMARK    1  A    between atoms: C_6  and  C_7 
REMARK    2  A    between atoms: C_7  and  C_8 
REMARK    3  A    between atoms: C_8  and  C_9 
REMARK    4  A    between atoms: C_9  and  O_11 
REMARK    5  A    between atoms: C_16  and  C_17 
REMARK    6  A    between atoms: C_17  and  C_18 
REMARK    7  A    between atoms: C_18  and  C_19 
REMARK    8  A    between atoms: C_19  and  O_21 
REMARK    9  A    between atoms: C_28  and  C_29 
REMARK   10  A    between atoms: C_29  and  C_30 
REMARK   11  A    between atoms: C_30  and  C_31 
REMARK   12  A    between atoms: C_31  and  O_33 
REMARK   13  A    between atoms: C_42  and  C_43 
REMARK   14  A    between atoms: C_43  and  C_44 
REMARK   15  A    between atoms: C_44  and  C_45 
REMARK   16  A    between atoms: C_45  and  O_47 
ROOT
HETATM    1  C   UNK     0      15.616  -7.632   8.433  0.00  0.00     0.051 C 
HETATM    2  C   UNK     0      16.406  -6.396   8.815  0.00  0.00    -0.031 A 
HETATM    3  C   UNK     0      17.708  -6.050   8.491  0.00  0.00     0.021 A 
HETATM    4  N   UNK     0      18.008  -4.866   9.077  0.00  0.00    -0.361 N 
HETATM    5  C   UNK     0      16.923  -4.447   9.760  0.00  0.00     0.022 A 
HETATM    6  C   UNK     0      15.902  -5.382   9.619  0.00  0.00    -0.027 A 
HETATM    7  C   UNK     0      16.700  -3.164  10.499  0.00  0.00     0.115 C 
HETATM    8  C   UNK     0      17.197  -1.896   9.828  0.00  0.00     0.021 A 
HETATM    9  N   UNK     0      17.213  -1.592   8.521  0.00  0.00    -0.361 N 
HETATM   10  C   UNK     0      17.828  -0.399   8.375  0.00  0.00     0.022 A 
HETATM   11  C   UNK     0      18.209   0.083   9.624  0.00  0.00    -0.027 A 
HETATM   12  C   UNK     0      17.815  -0.855  10.544  0.00  0.00    -0.031 A 
HETATM   13  C   UNK     0      18.018  -0.752  12.039  0.00  0.00     0.051 C 
HETATM   14  C   UNK     0      18.126   0.306   7.055  0.00  0.00     0.115 C 
HETATM   15  C   UNK     0      19.033  -0.485   6.126  0.00  0.00     0.021 A 
HETATM   16  N   UNK     0      18.822  -1.717   5.625  0.00  0.00    -0.361 N 
HETATM   17  C   UNK     0      19.886  -2.087   4.909  0.00  0.00     0.022 A 
HETATM   18  C   UNK     0      20.832  -1.042   4.937  0.00  0.00    -0.027 A 
HETATM   19  C   UNK     0      20.285  -0.045   5.702  0.00  0.00    -0.031 A 
HETATM   20  C   UNK     0      20.963   1.287   5.962  0.00  0.00     0.051 C 
HETATM   21  C   UNK     0      20.177  -3.393   4.205  0.00  0.00     0.115 C 
HETATM   22  C   UNK     0      19.651  -4.659   4.838  0.00  0.00     0.022 A 
HETATM   23  N   UNK     0      19.618  -4.986   6.136  0.00  0.00    -0.361 N 
HETATM   24  C   UNK     0      18.933  -6.140   6.265  0.00  0.00     0.021 A 
HETATM   25  C   UNK     0      18.523  -6.572   5.018  0.00  0.00    -0.031 A 
HETATM   26  C   UNK     0      17.763  -7.828   4.646  0.00  0.00     0.051 C 
HETATM   27  C   UNK     0      18.971  -5.640   4.088  0.00  0.00    -0.027 A 
HETATM   28  C   UNK     0      18.554  -6.858   7.549  0.00  0.00     0.115 C 
HETATM   29  H   UNK     0      18.998  -4.355   9.037  0.00  0.00     0.165 HD
HETATM   30  H   UNK     0      16.747  -2.194   7.703  0.00  0.00     0.165 HD
HETATM   31  H   UNK     0      17.883  -2.319   5.738  0.00  0.00     0.165 HD
HETATM   32  H   UNK     0      20.116  -4.427   6.971  0.00  0.00     0.165 HD
ENDROOT
BRANCH   6  33
HETATM   33  C   UNK     0      14.505  -5.385  10.185  0.00  0.00     0.051 C 
BRANCH  33  34
HETATM   34  C   UNK     0      13.907  -3.999  10.142  0.00  0.00     0.114 C 
BRANCH  34  35
HETATM   35  C   UNK     0      12.575  -4.067  10.809  0.00  0.00     0.139 C 
HETATM   36  O   UNK     0      11.934  -5.158  10.844  0.00  0.00    -0.650 OA
BRANCH  35  37
HETATM   37  O   UNK     0      11.983  -2.966  11.416  0.00  0.00    -0.776 OA
HETATM   38  H   UNK     0      12.528  -2.207  11.793  0.00  0.00     0.167 HD
ENDBRANCH  35  37
ENDBRANCH  34  35
ENDBRANCH  33  34
ENDBRANCH   6  33
BRANCH  27  39
HETATM   39  C   UNK     0      18.780  -5.803   2.621  0.00  0.00     0.051 C 
BRANCH  39  40
HETATM   40  C   UNK     0      17.656  -5.114   1.987  0.00  0.00     0.114 C 
BRANCH  40  41
HETATM   41  C   UNK     0      17.404  -3.705   2.186  0.00  0.00     0.139 C 
HETATM   42  O   UNK     0      16.881  -3.242   3.209  0.00  0.00    -0.650 OA
BRANCH  41  43
HETATM   43  O   UNK     0      17.771  -2.786   1.163  0.00  0.00    -0.776 OA
HETATM   44  H   UNK     0      17.759  -1.814   1.448  0.00  0.00     0.167 HD
ENDBRANCH  41  43
ENDBRANCH  40  41
ENDBRANCH  39  40
ENDBRANCH  27  39
BRANCH  11  45
HETATM   45  C   UNK     0      18.914   1.370   9.961  0.00  0.00     0.051 C 
BRANCH  45  46
HETATM   46  C   UNK     0      20.300   1.457   9.437  0.00  0.00     0.114 C 
BRANCH  46  47
HETATM   47  C   UNK     0      21.087   0.368  10.084  0.00  0.00     0.139 C 
HETATM   48  O   UNK     0      21.322   0.449  11.297  0.00  0.00    -0.650 OA
BRANCH  47  49
HETATM   49  O   UNK     0      21.542  -0.699   9.352  0.00  0.00    -0.776 OA
HETATM   50  H   UNK     0      21.916  -0.590   8.402  0.00  0.00     0.167 HD
ENDBRANCH  47  49
ENDBRANCH  46  47
ENDBRANCH  45  46
ENDBRANCH  11  45
BRANCH  18  51
HETATM   51  C   UNK     0      22.174  -0.990   4.255  0.00  0.00     0.051 C 
BRANCH  51  52
HETATM   52  C   UNK     0      23.160  -1.656   5.203  0.00  0.00     0.114 C 
BRANCH  52  53
HETATM   53  C   UNK     0      24.481  -1.852   4.574  0.00  0.00     0.139 C 
HETATM   54  O   UNK     0      25.508  -1.461   5.151  0.00  0.00    -0.650 OA
BRANCH  53  55
HETATM   55  O   UNK     0      24.565  -2.464   3.347  0.00  0.00    -0.776 OA
HETATM   56  H   UNK     0      25.060  -2.123   2.557  0.00  0.00     0.167 HD
ENDBRANCH  53  55
ENDBRANCH  52  53
ENDBRANCH  51  52
ENDBRANCH  18  51
TORSDOF 16
ENDMDL
MODEL 14
REMARK VINA RESULT:      -8.0     27.235     30.127
REMARK  16 active torsions:
REMARK  status: ('A' for Active; 'I' for Inactive)
REMARK    1  A    between atoms: C_6  and  C_7 
REMARK    2  A    between atoms: C_7  and  C_8 
REMARK    3  A    between atoms: C_8  and  C_9 
REMARK    4  A    between atoms: C_9  and  O_11 
REMARK    5  A    between atoms: C_16  and  C_17 
REMARK    6  A    between atoms: C_17  and  C_18 
REMARK    7  A    between atoms: C_18  and  C_19 
REMARK    8  A    between atoms: C_19  and  O_21 
REMARK    9  A    between atoms: C_28  and  C_29 
REMARK   10  A    between atoms: C_29  and  C_30 
REMARK   11  A    between atoms: C_30  and  C_31 
REMARK   12  A    between atoms: C_31  and  O_33 
REMARK   13  A    between atoms: C_42  and  C_43 
REMARK   14  A    between atoms: C_43  and  C_44 
REMARK   15  A    between atoms: C_44  and  C_45 
REMARK   16  A    between atoms: C_45  and  O_47 
ROOT
HETATM    1  C   UNK     0      15.583  -6.139   9.169  0.00  0.00     0.051 C 
HETATM    2  C   UNK     0      16.468  -4.988   9.600  0.00  0.00    -0.031 A 
HETATM    3  C   UNK     0      17.849  -4.875   9.553  0.00  0.00     0.021 A 
HETATM    4  N   UNK     0      18.211  -3.679  10.075  0.00  0.00    -0.361 N 
HETATM    5  C   UNK     0      17.091  -3.024  10.445  0.00  0.00     0.022 A 
HETATM    6  C   UNK     0      15.983  -3.816  10.165  0.00  0.00    -0.027 A 
HETATM    7  C   UNK     0      16.934  -1.637  10.985  0.00  0.00     0.115 C 
HETATM    8  C   UNK     0      17.767  -0.551  10.327  0.00  0.00     0.021 A 
HETATM    9  N   UNK     0      18.111  -0.427   9.036  0.00  0.00    -0.361 N 
HETATM   10  C   UNK     0      18.933   0.637   8.921  0.00  0.00     0.022 A 
HETATM   11  C   UNK     0      19.116   1.221  10.170  0.00  0.00    -0.027 A 
HETATM   12  C   UNK     0      18.384   0.478  11.061  0.00  0.00    -0.031 A 
HETATM   13  C   UNK     0      18.279   0.747  12.546  0.00  0.00     0.051 C 
HETATM   14  C   UNK     0      19.618   1.112   7.643  0.00  0.00     0.115 C 
HETATM   15  C   UNK     0      20.556   0.086   7.028  0.00  0.00     0.021 A 
HETATM   16  N   UNK     0      20.253  -1.159   6.614  0.00  0.00    -0.361 N 
HETATM   17  C   UNK     0      21.368  -1.767   6.201  0.00  0.00     0.022 A 
HETATM   18  C   UNK     0      22.447  -0.872   6.345  0.00  0.00    -0.027 A 
HETATM   19  C   UNK     0      21.925   0.285   6.863  0.00  0.00    -0.031 A 
HETATM   20  C   UNK     0      22.746   1.531   7.142  0.00  0.00     0.051 C 
HETATM   21  C   UNK     0      21.580  -3.182   5.713  0.00  0.00     0.115 C 
HETATM   22  C   UNK     0      20.727  -4.266   6.328  0.00  0.00     0.022 A 
HETATM   23  N   UNK     0      20.365  -4.412   7.609  0.00  0.00    -0.361 N 
HETATM   24  C   UNK     0      19.485  -5.430   7.688  0.00  0.00     0.021 A 
HETATM   25  C   UNK     0      19.283  -5.960   6.428  0.00  0.00    -0.031 A 
HETATM   26  C   UNK     0      18.420  -7.135   6.015  0.00  0.00     0.051 C 
HETATM   27  C   UNK     0      20.067  -5.232   5.541  0.00  0.00    -0.027 A 
HETATM   28  C   UNK     0      18.728  -5.912   8.914  0.00  0.00     0.115 C 
HETATM   29  H   UNK     0      19.258  -3.322  10.215  0.00  0.00     0.165 HD
HETATM   30  H   UNK     0      17.735  -1.060   8.195  0.00  0.00     0.165 HD
HETATM   31  H   UNK     0      19.225  -1.602   6.566  0.00  0.00     0.165 HD
HETATM   32  H   UNK     0      20.761  -3.824   8.478  0.00  0.00     0.165 HD
ENDROOT
BRANCH   6  33
HETATM   33  C   UNK     0      14.516  -3.547  10.392  0.00  0.00     0.051 C 
BRANCH  33  34
HETATM   34  C   UNK     0      14.139  -2.174   9.888  0.00  0.00     0.114 C 
BRANCH  34  35
HETATM   35  C   UNK     0      13.348  -1.507  10.961  0.00  0.00     0.139 C 
HETATM   36  O   UNK     0      13.718  -0.388  11.424  0.00  0.00    -0.650 OA
BRANCH  35  37
HETATM   37  O   UNK     0      12.191  -2.062  11.495  0.00  0.00    -0.776 OA
HETATM   38  H   UNK     0      11.696  -2.809  11.035  0.00  0.00     0.167 HD
ENDBRANCH  35  37
ENDBRANCH  34  35
ENDBRANCH  33  34
ENDBRANCH   6  33
BRANCH  27  39
HETATM   39  C   UNK     0      20.168  -5.558   4.092  0.00  0.00     0.051 C 
BRANCH  39  40
HETATM   40  C   UNK     0      19.139  -5.040   3.191  0.00  0.00     0.114 C 
BRANCH  40  41
HETATM   41  C   UNK     0      18.445  -3.798   3.448  0.00  0.00     0.139 C 
HETATM   42  O   UNK     0      18.964  -2.682   3.304  0.00  0.00    -0.650 OA
BRANCH  41  43
HETATM   43  O   UNK     0      17.092  -3.840   3.890  0.00  0.00    -0.776 OA
HETATM   44  H   UNK     0      16.709  -2.941   4.154  0.00  0.00     0.167 HD
ENDBRANCH  41  43
ENDBRANCH  40  41
ENDBRANCH  39  40
ENDBRANCH  27  39
BRANCH  11  45
HETATM   45  C   UNK     0      19.938   2.429  10.534  0.00  0.00     0.051 C 
BRANCH  45  46
HETATM   46  C   UNK     0      21.356   2.124  10.850  0.00  0.00     0.114 C 
BRANCH  46  47
HETATM   47  C   UNK     0      21.603   2.571  12.251  0.00  0.00     0.139 C 
HETATM   48  O   UNK     0      20.738   3.255  12.815  0.00  0.00    -0.650 OA
BRANCH  47  49
HETATM   49  O   UNK     0      22.764   2.235  12.901  0.00  0.00    -0.776 OA
HETATM   50  H   UNK     0      23.312   2.924  13.429  0.00  0.00     0.167 HD
ENDBRANCH  47  49
ENDBRANCH  46  47
ENDBRANCH  45  46
ENDBRANCH  11  45
BRANCH  18  51
HETATM   51  C   UNK     0      23.893  -1.100   5.988  0.00  0.00     0.051 C 
BRANCH  51  52
HETATM   52  C   UNK     0      24.071  -0.574   4.572  0.00  0.00     0.114 C 
BRANCH  52  53
HETATM   53  C   UNK     0      25.038  -1.381   3.803  0.00  0.00     0.139 C 
HETATM   54  O   UNK     0      26.228  -1.033   3.743  0.00  0.00    -0.650 OA
BRANCH  53  55
HETATM   55  O   UNK     0      24.614  -2.514   3.154  0.00  0.00    -0.776 OA
HETATM   56  H   UNK     0      25.193  -3.171   2.686  0.00  0.00     0.167 HD
ENDBRANCH  53  55
ENDBRANCH  52  53
ENDBRANCH  51  52
ENDBRANCH  18  51
TORSDOF 16
ENDMDL
MODEL 15
REMARK VINA RESULT:      -8.0     27.468     31.252
REMARK  16 active torsions:
REMARK  status: ('A' for Active; 'I' for Inactive)
REMARK    1  A    between atoms: C_6  and  C_7 
REMARK    2  A    between atoms: C_7  and  C_8 
REMARK    3  A    between atoms: C_8  and  C_9 
REMARK    4  A    between atoms: C_9  and  O_11 
REMARK    5  A    between atoms: C_16  and  C_17 
REMARK    6  A    between atoms: C_17  and  C_18 
REMARK    7  A    between atoms: C_18  and  C_19 
REMARK    8  A    between atoms: C_19  and  O_21 
REMARK    9  A    between atoms: C_28  and  C_29 
REMARK   10  A    between atoms: C_29  and  C_30 
REMARK   11  A    between atoms: C_30  and  C_31 
REMARK   12  A    between atoms: C_31  and  O_33 
REMARK   13  A    between atoms: C_42  and  C_43 
REMARK   14  A    between atoms: C_43  and  C_44 
REMARK   15  A    between atoms: C_44  and  C_45 
REMARK   16  A    between atoms: C_45  and  O_47 
ROOT
HETATM    1  C   UNK     0      19.371   1.786   9.332  0.00  0.00     0.051 C 
HETATM    2  C   UNK     0      18.488   0.582   9.072  0.00  0.00    -0.031 A 
HETATM    3  C   UNK     0      18.098   0.022   7.865  0.00  0.00     0.021 A 
HETATM    4  N   UNK     0      17.279  -1.028   8.111  0.00  0.00    -0.361 N 
HETATM    5  C   UNK     0      17.144  -1.154   9.447  0.00  0.00     0.022 A 
HETATM    6  C   UNK     0      17.886  -0.161  10.079  0.00  0.00    -0.027 A 
HETATM    7  C   UNK     0      16.427  -2.203  10.237  0.00  0.00     0.115 C 
HETATM    8  C   UNK     0      16.591  -3.639   9.770  0.00  0.00     0.021 A 
HETATM    9  N   UNK     0      17.674  -4.226   9.238  0.00  0.00    -0.361 N 
HETATM   10  C   UNK     0      17.338  -5.486   8.887  0.00  0.00     0.022 A 
HETATM   11  C   UNK     0      16.004  -5.718   9.209  0.00  0.00    -0.027 A 
HETATM   12  C   UNK     0      15.528  -4.559   9.767  0.00  0.00    -0.031 A 
HETATM   13  C   UNK     0      14.119  -4.348  10.276  0.00  0.00     0.051 C 
HETATM   14  C   UNK     0      18.240  -6.497   8.187  0.00  0.00     0.115 C 
HETATM   15  C   UNK     0      18.727  -6.046   6.819  0.00  0.00     0.021 A 
HETATM   16  N   UNK     0      19.438  -4.942   6.523  0.00  0.00    -0.361 N 
HETATM   17  C   UNK     0      19.605  -4.869   5.201  0.00  0.00     0.022 A 
HETATM   18  C   UNK     0      18.981  -5.984   4.607  0.00  0.00    -0.027 A 
HETATM   19  C   UNK     0      18.436  -6.714   5.631  0.00  0.00    -0.031 A 
HETATM   20  C   UNK     0      17.697  -8.025   5.433  0.00  0.00     0.051 C 
HETATM   21  C   UNK     0      20.262  -3.796   4.362  0.00  0.00     0.115 C 
HETATM   22  C   UNK     0      20.144  -2.368   4.839  0.00  0.00     0.022 A 
HETATM   23  N   UNK     0      19.080  -1.757   5.376  0.00  0.00    -0.361 N 
HETATM   24  C   UNK     0      19.459  -0.531   5.790  0.00  0.00     0.021 A 
HETATM   25  C   UNK     0      20.798  -0.344   5.503  0.00  0.00    -0.031 A 
HETATM   26  C   UNK     0      21.661   0.878   5.738  0.00  0.00     0.051 C 
HETATM   27  C   UNK     0      21.258  -1.506   4.894  0.00  0.00    -0.027 A 
HETATM   28  C   UNK     0      18.628   0.494   6.541  0.00  0.00     0.115 C 
HETATM   29  H   UNK     0      16.769  -1.647   7.337  0.00  0.00     0.165 HD
HETATM   30  H   UNK     0      18.691  -3.772   9.156  0.00  0.00     0.165 HD
HETATM   31  H   UNK     0      19.872  -4.223   7.266  0.00  0.00     0.165 HD
HETATM   32  H   UNK     0      18.039  -2.170   5.429  0.00  0.00     0.165 HD
ENDROOT
BRANCH   6  33
HETATM   33  C   UNK     0      18.061   0.134  11.547  0.00  0.00     0.051 C 
BRANCH  33  34
HETATM   34  C   UNK     0      19.399  -0.366  12.037  0.00  0.00     0.114 C 
BRANCH  34  35
HETATM   35  C   UNK     0      19.969   0.685  12.929  0.00  0.00     0.139 C 
HETATM   36  O   UNK     0      20.792   0.372  13.838  0.00  0.00    -0.650 OA
BRANCH  35  37
HETATM   37  O   UNK     0      19.636   2.029  12.811  0.00  0.00    -0.776 OA
HETATM   38  H   UNK     0      19.100   2.381  12.034  0.00  0.00     0.167 HD
ENDBRANCH  35  37
ENDBRANCH  34  35
ENDBRANCH  33  34
ENDBRANCH   6  33
BRANCH  27  39
HETATM   39  C   UNK     0      22.645  -1.653   4.374  0.00  0.00     0.051 C 
BRANCH  39  40
HETATM   40  C   UNK     0      23.713  -1.961   5.324  0.00  0.00     0.114 C 
BRANCH  40  41
HETATM   41  C   UNK     0      24.993  -1.290   5.289  0.00  0.00     0.139 C 
HETATM   42  O   UNK     0      25.360  -0.472   6.144  0.00  0.00    -0.650 OA
BRANCH  41  43
HETATM   43  O   UNK     0      25.892  -1.573   4.222  0.00  0.00    -0.776 OA
HETATM   44  H   UNK     0      25.742  -2.469   3.773  0.00  0.00     0.167 HD
ENDBRANCH  41  43
ENDBRANCH  40  41
ENDBRANCH  39  40
ENDBRANCH  27  39
BRANCH  11  45
HETATM   45  C   UNK     0      15.192  -6.971   9.014  0.00  0.00     0.051 C 
BRANCH  45  46
HETATM   46  C   UNK     0      14.977  -7.754  10.257  0.00  0.00     0.114 C 
BRANCH  46  47
HETATM   47  C   UNK     0      13.619  -8.363  10.166  0.00  0.00     0.139 C 
HETATM   48  O   UNK     0      12.636  -7.611  10.106  0.00  0.00    -0.650 OA
BRANCH  47  49
HETATM   49  O   UNK     0      13.459  -9.725  10.151  0.00  0.00    -0.776 OA
HETATM   50  H   UNK     0      13.227 -10.237   9.292  0.00  0.00     0.167 HD
ENDBRANCH  47  49
ENDBRANCH  46  47
ENDBRANCH  45  46
ENDBRANCH  11  45
BRANCH  18  51
HETATM   51  C   UNK     0      18.925  -6.345   3.145  0.00  0.00     0.051 C 
BRANCH  51  52
HETATM   52  C   UNK     0      17.549  -5.920   2.654  0.00  0.00     0.114 C 
BRANCH  52  53
HETATM   53  C   UNK     0      17.579  -4.586   2.023  0.00  0.00     0.139 C 
HETATM   54  O   UNK     0      17.292  -3.578   2.687  0.00  0.00    -0.650 OA
BRANCH  53  55
HETATM   55  O   UNK     0      17.923  -4.469   0.698  0.00  0.00    -0.776 OA
HETATM   56  H   UNK     0      17.383  -4.026  -0.008  0.00  0.00     0.167 HD
ENDBRANCH  53  55
ENDBRANCH  52  53
ENDBRANCH  51  52
ENDBRANCH  18  51
TORSDOF 16
ENDMDL
MODEL 16
REMARK VINA RESULT:      -8.0     11.797     16.387
REMARK  16 active torsions:
REMARK  status: ('A' for Active; 'I' for Inactive)
REMARK    1  A    between atoms: C_6  and  C_7 
REMARK    2  A    between atoms: C_7  and  C_8 
REMARK    3  A    between atoms: C_8  and  C_9 
REMARK    4  A    between atoms: C_9  and  O_11 
REMARK    5  A    between atoms: C_16  and  C_17 
REMARK    6  A    between atoms: C_17  and  C_18 
REMARK    7  A    between atoms: C_18  and  C_19 
REMARK    8  A    between atoms: C_19  and  O_21 
REMARK    9  A    between atoms: C_28  and  C_29 
REMARK   10  A    between atoms: C_29  and  C_30 
REMARK   11  A    between atoms: C_30  and  C_31 
REMARK   12  A    between atoms: C_31  and  O_33 
REMARK   13  A    between atoms: C_42  and  C_43 
REMARK   14  A    between atoms: C_43  and  C_44 
REMARK   15  A    between atoms: C_44  and  C_45 
REMARK   16  A    between atoms: C_45  and  O_47 
ROOT
HETATM    1  C   UNK     0      23.949  20.966  -6.722  0.00  0.00     0.051 C 
HETATM    2  C   UNK     0      24.177  19.499  -6.420  0.00  0.00    -0.031 A 
HETATM    3  C   UNK     0      25.172  18.902  -5.661  0.00  0.00     0.021 A 
HETATM    4  N   UNK     0      25.002  17.559  -5.690  0.00  0.00    -0.361 N 
HETATM    5  C   UNK     0      23.916  17.288  -6.443  0.00  0.00     0.022 A 
HETATM    6  C   UNK     0      23.377  18.479  -6.918  0.00  0.00    -0.027 A 
HETATM    7  C   UNK     0      23.249  15.975  -6.714  0.00  0.00     0.115 C 
HETATM    8  C   UNK     0      23.093  15.033  -5.533  0.00  0.00     0.021 A 
HETATM    9  N   UNK     0      22.847  15.336  -4.249  0.00  0.00    -0.361 N 
HETATM   10  C   UNK     0      22.882  14.191  -3.535  0.00  0.00     0.022 A 
HETATM   11  C   UNK     0      23.149  13.121  -4.384  0.00  0.00    -0.027 A 
HETATM   12  C   UNK     0      23.282  13.644  -5.644  0.00  0.00    -0.031 A 
HETATM   13  C   UNK     0      23.573  12.847  -6.896  0.00  0.00     0.051 C 
HETATM   14  C   UNK     0      22.720  14.067  -2.022  0.00  0.00     0.115 C 
HETATM   15  C   UNK     0      23.777  14.816  -1.226  0.00  0.00     0.021 A 
HETATM   16  N   UNK     0      24.056  16.132  -1.266  0.00  0.00    -0.361 N 
HETATM   17  C   UNK     0      25.098  16.384  -0.471  0.00  0.00     0.022 A 
HETATM   18  C   UNK     0      25.512  15.175   0.123  0.00  0.00    -0.027 A 
HETATM   19  C   UNK     0      24.676  14.201  -0.357  0.00  0.00    -0.031 A 
HETATM   20  C   UNK     0      24.751  12.743   0.059  0.00  0.00     0.051 C 
HETATM   21  C   UNK     0      25.841  17.677  -0.222  0.00  0.00     0.115 C 
HETATM   22  C   UNK     0      25.965  18.643  -1.376  0.00  0.00     0.022 A 
HETATM   23  N   UNK     0      26.205  18.370  -2.665  0.00  0.00    -0.361 N 
HETATM   24  C   UNK     0      26.088  19.514  -3.370  0.00  0.00     0.021 A 
HETATM   25  C   UNK     0      25.775  20.551  -2.512  0.00  0.00    -0.031 A 
HETATM   26  C   UNK     0      25.583  22.021  -2.823  0.00  0.00     0.051 C 
HETATM   27  C   UNK     0      25.691  20.018  -1.230  0.00  0.00    -0.027 A 
HETATM   28  C   UNK     0      26.180  19.692  -4.875  0.00  0.00     0.115 C 
HETATM   29  H   UNK     0      25.674  16.809  -5.211  0.00  0.00     0.165 HD
HETATM   30  H   UNK     0      22.599  16.350  -3.851  0.00  0.00     0.165 HD
HETATM   31  H   UNK     0      23.476  16.908  -1.830  0.00  0.00     0.165 HD
HETATM   32  H   UNK     0      26.503  17.374  -3.085  0.00  0.00     0.165 HD
ENDROOT
BRANCH   6  33
HETATM   33  C   UNK     0      22.178  18.718  -7.799  0.00  0.00     0.051 C 
BRANCH  33  34
HETATM   34  C   UNK     0      22.579  18.745  -9.254  0.00  0.00     0.114 C 
BRANCH  34  35
HETATM   35  C   UNK     0      21.380  18.368 -10.056  0.00  0.00     0.139 C 
HETATM   36  O   UNK     0      20.469  17.654  -9.543  0.00  0.00    -0.650 OA
BRANCH  35  37
HETATM   37  O   UNK     0      21.202  18.772 -11.373  0.00  0.00    -0.776 OA
HETATM   38  H   UNK     0      20.670  18.226 -12.033  0.00  0.00     0.167 HD
ENDBRANCH  35  37
ENDBRANCH  34  35
ENDBRANCH  33  34
ENDBRANCH   6  33
BRANCH  27  39
HETATM   39  C   UNK     0      25.439  20.850  -0.022  0.00  0.00     0.051 C 
BRANCH  39  40
HETATM   40  C   UNK     0      26.585  21.257   0.791  0.00  0.00     0.114 C 
BRANCH  40  41
HETATM   41  C   UNK     0      27.923  21.340   0.250  0.00  0.00     0.139 C 
HETATM   42  O   UNK     0      28.790  20.475   0.434  0.00  0.00    -0.650 OA
BRANCH  41  43
HETATM   43  O   UNK     0      28.280  22.471  -0.538  0.00  0.00    -0.776 OA
HETATM   44  H   UNK     0      27.723  22.591  -1.375  0.00  0.00     0.167 HD
ENDBRANCH  41  43
ENDBRANCH  40  41
ENDBRANCH  39  40
ENDBRANCH  27  39
BRANCH  11  45
HETATM   45  C   UNK     0      23.274  11.659  -4.046  0.00  0.00     0.051 C 
BRANCH  45  46
HETATM   46  C   UNK     0      24.498  11.318  -3.276  0.00  0.00     0.114 C 
BRANCH  46  47
HETATM   47  C   UNK     0      25.669  11.685  -4.123  0.00  0.00     0.139 C 
HETATM   48  O   UNK     0      26.393  12.622  -3.759  0.00  0.00    -0.650 OA
BRANCH  47  49
HETATM   49  O   UNK     0      25.939  11.001  -5.282  0.00  0.00    -0.776 OA
HETATM   50  H   UNK     0      26.243  10.020  -5.278  0.00  0.00     0.167 HD
ENDBRANCH  47  49
ENDBRANCH  46  47
ENDBRANCH  45  46
ENDBRANCH  11  45
BRANCH  18  51
HETATM   51  C   UNK     0      26.630  14.963   1.110  0.00  0.00     0.051 C 
BRANCH  51  52
HETATM   52  C   UNK     0      27.906  14.843   0.290  0.00  0.00     0.114 C 
BRANCH  52  53
HETATM   53  C   UNK     0      28.272  13.434   0.046  0.00  0.00     0.139 C 
HETATM   54  O   UNK     0      28.796  12.763   0.949  0.00  0.00    -0.650 OA
BRANCH  53  55
HETATM   55  O   UNK     0      28.032  12.873  -1.185  0.00  0.00    -0.776 OA
HETATM   56  H   UNK     0      27.886  13.368  -2.033  0.00  0.00     0.167 HD
ENDBRANCH  53  55
ENDBRANCH  52  53
ENDBRANCH  51  52
ENDBRANCH  18  51
TORSDOF 16
ENDMDL
MODEL 17
REMARK VINA RESULT:      -8.0     28.144     31.645
REMARK  16 active torsions:
REMARK  status: ('A' for Active; 'I' for Inactive)
REMARK    1  A    between atoms: C_6  and  C_7 
REMARK    2  A    between atoms: C_7  and  C_8 
REMARK    3  A    between atoms: C_8  and  C_9 
REMARK    4  A    between atoms: C_9  and  O_11 
REMARK    5  A    between atoms: C_16  and  C_17 
REMARK    6  A    between atoms: C_17  and  C_18 
REMARK    7  A    between atoms: C_18  and  C_19 
REMARK    8  A    between atoms: C_19  and  O_21 
REMARK    9  A    between atoms: C_28  and  C_29 
REMARK   10  A    between atoms: C_29  and  C_30 
REMARK   11  A    between atoms: C_30  and  C_31 
REMARK   12  A    between atoms: C_31  and  O_33 
REMARK   13  A    between atoms: C_42  and  C_43 
REMARK   14  A    between atoms: C_43  and  C_44 
REMARK   15  A    between atoms: C_44  and  C_45 
REMARK   16  A    between atoms: C_45  and  O_47 
ROOT
HETATM    1  C   UNK     0      17.185  -4.973  11.453  0.00  0.00     0.051 C 
HETATM    2  C   UNK     0      16.671  -5.377  10.087  0.00  0.00    -0.031 A 
HETATM    3  C   UNK     0      16.211  -4.582   9.049  0.00  0.00     0.021 A 
HETATM    4  N   UNK     0      15.821  -5.377   8.024  0.00  0.00    -0.361 N 
HETATM    5  C   UNK     0      16.030  -6.660   8.383  0.00  0.00     0.022 A 
HETATM    6  C   UNK     0      16.559  -6.697   9.669  0.00  0.00    -0.027 A 
HETATM    7  C   UNK     0      15.856  -7.913   7.582  0.00  0.00     0.115 C 
HETATM    8  C   UNK     0      16.337  -7.875   6.143  0.00  0.00     0.021 A 
HETATM    9  N   UNK     0      17.401  -7.235   5.634  0.00  0.00    -0.361 N 
HETATM   10  C   UNK     0      17.391  -7.403   4.294  0.00  0.00     0.022 A 
HETATM   11  C   UNK     0      16.295  -8.182   3.932  0.00  0.00    -0.027 A 
HETATM   12  C   UNK     0      15.628  -8.482   5.091  0.00  0.00    -0.031 A 
HETATM   13  C   UNK     0      14.371  -9.318   5.185  0.00  0.00     0.051 C 
HETATM   14  C   UNK     0      18.378  -6.796   3.302  0.00  0.00     0.115 C 
HETATM   15  C   UNK     0      18.391  -5.276   3.297  0.00  0.00     0.021 A 
HETATM   16  N   UNK     0      18.652  -4.454   4.331  0.00  0.00    -0.361 N 
HETATM   17  C   UNK     0      18.492  -3.189   3.936  0.00  0.00     0.022 A 
HETATM   18  C   UNK     0      18.118  -3.186   2.577  0.00  0.00    -0.027 A 
HETATM   19  C   UNK     0      18.059  -4.499   2.189  0.00  0.00    -0.031 A 
HETATM   20  C   UNK     0      17.725  -4.948   0.778  0.00  0.00     0.051 C 
HETATM   21  C   UNK     0      18.594  -1.904   4.726  0.00  0.00     0.115 C 
HETATM   22  C   UNK     0      18.159  -1.939   6.173  0.00  0.00     0.022 A 
HETATM   23  N   UNK     0      17.107  -2.571   6.708  0.00  0.00    -0.361 N 
HETATM   24  C   UNK     0      17.181  -2.455   8.050  0.00  0.00     0.021 A 
HETATM   25  C   UNK     0      18.302  -1.721   8.385  0.00  0.00    -0.031 A 
HETATM   26  C   UNK     0      18.787  -1.293   9.755  0.00  0.00     0.051 C 
HETATM   27  C   UNK     0      18.945  -1.379   7.201  0.00  0.00    -0.027 A 
HETATM   28  C   UNK     0      16.267  -3.081   9.089  0.00  0.00     0.115 C 
HETATM   29  H   UNK     0      15.364  -5.027   7.069  0.00  0.00     0.165 HD
HETATM   30  H   UNK     0      18.190  -6.704   6.222  0.00  0.00     0.165 HD
HETATM   31  H   UNK     0      19.003  -4.770   5.347  0.00  0.00     0.165 HD
HETATM   32  H   UNK     0      16.278  -3.069   6.142  0.00  0.00     0.165 HD
ENDROOT
BRANCH   6  33
HETATM   33  C   UNK     0      16.957  -7.876  10.520  0.00  0.00     0.051 C 
BRANCH  33  34
HETATM   34  C   UNK     0      15.771  -8.403  11.293  0.00  0.00     0.114 C 
BRANCH  34  35
HETATM   35  C   UNK     0      16.147  -8.413  12.736  0.00  0.00     0.139 C 
HETATM   36  O   UNK     0      16.715  -7.408  13.253  0.00  0.00    -0.650 OA
BRANCH  35  37
HETATM   37  O   UNK     0      15.898  -9.498  13.567  0.00  0.00    -0.776 OA
HETATM   38  H   UNK     0      15.934 -10.448  13.233  0.00  0.00     0.167 HD
ENDBRANCH  35  37
ENDBRANCH  34  35
ENDBRANCH  33  34
ENDBRANCH   6  33
BRANCH  27  39
HETATM   39  C   UNK     0      20.160  -0.522   7.156  0.00  0.00     0.051 C 
BRANCH  39  40
HETATM   40  C   UNK     0      21.448  -1.157   6.877  0.00  0.00     0.114 C 
BRANCH  40  41
HETATM   41  C   UNK     0      21.779  -2.476   7.367  0.00  0.00     0.139 C 
HETATM   42  O   UNK     0      22.075  -2.712   8.546  0.00  0.00    -0.650 OA
BRANCH  41  43
HETATM   43  O   UNK     0      21.768  -3.574   6.460  0.00  0.00    -0.776 OA
HETATM   44  H   UNK     0      20.901  -4.097   6.446  0.00  0.00     0.167 HD
ENDBRANCH  41  43
ENDBRANCH  40  41
ENDBRANCH  39  40
ENDBRANCH  27  39
BRANCH  11  45
HETATM   45  C   UNK     0      15.877  -8.638   2.560  0.00  0.00     0.051 C 
BRANCH  45  46
HETATM   46  C   UNK     0      14.459  -8.343   2.230  0.00  0.00     0.114 C 
BRANCH  46  47
HETATM   47  C   UNK     0      14.212  -8.851   0.850  0.00  0.00     0.139 C 
HETATM   48  O   UNK     0      14.940  -9.753   0.412  0.00  0.00    -0.650 OA
BRANCH  47  49
HETATM   49  O   UNK     0      13.203  -8.332   0.080  0.00  0.00    -0.776 OA
HETATM   50  H   UNK     0      12.860  -8.807  -0.764  0.00  0.00     0.167 HD
ENDBRANCH  47  49
ENDBRANCH  46  47
ENDBRANCH  45  46
ENDBRANCH  11  45
BRANCH  18  51
HETATM   51  C   UNK     0      17.852  -1.996   1.692  0.00  0.00     0.051 C 
BRANCH  51  52
HETATM   52  C   UNK     0      16.340  -1.905   1.544  0.00  0.00     0.114 C 
BRANCH  52  53
HETATM   53  C   UNK     0      15.725  -1.136   2.643  0.00  0.00     0.139 C 
HETATM   54  O   UNK     0      15.793   0.103   2.647  0.00  0.00    -0.650 OA
BRANCH  53  55
HETATM   55  O   UNK     0      15.083  -1.800   3.660  0.00  0.00    -0.776 OA
HETATM   56  H   UNK     0      15.514  -2.368   4.350  0.00  0.00     0.167 HD
ENDBRANCH  53  55
ENDBRANCH  52  53
ENDBRANCH  51  52
ENDBRANCH  18  51
TORSDOF 16
ENDMDL
MODEL 18
REMARK VINA RESULT:      -7.9     27.678     30.418
REMARK  16 active torsions:
REMARK  status: ('A' for Active; 'I' for Inactive)
REMARK    1  A    between atoms: C_6  and  C_7 
REMARK    2  A    between atoms: C_7  and  C_8 
REMARK    3  A    between atoms: C_8  and  C_9 
REMARK    4  A    between atoms: C_9  and  O_11 
REMARK    5  A    between atoms: C_16  and  C_17 
REMARK    6  A    between atoms: C_17  and  C_18 
REMARK    7  A    between atoms: C_18  and  C_19 
REMARK    8  A    between atoms: C_19  and  O_21 
REMARK    9  A    between atoms: C_28  and  C_29 
REMARK   10  A    between atoms: C_29  and  C_30 
REMARK   11  A    between atoms: C_30  and  C_31 
REMARK   12  A    between atoms: C_31  and  O_33 
REMARK   13  A    between atoms: C_42  and  C_43 
REMARK   14  A    between atoms: C_43  and  C_44 
REMARK   15  A    between atoms: C_44  and  C_45 
REMARK   16  A    between atoms: C_45  and  O_47 
ROOT
HETATM    1  C   UNK     0      16.935  -0.024  12.053  0.00  0.00     0.051 C 
HETATM    2  C   UNK     0      17.169  -0.260  10.575  0.00  0.00    -0.031 A 
HETATM    3  C   UNK     0      18.023   0.396   9.703  0.00  0.00     0.021 A 
HETATM    4  N   UNK     0      17.879  -0.130   8.464  0.00  0.00    -0.361 N 
HETATM    5  C   UNK     0      16.957  -1.114   8.529  0.00  0.00     0.022 A 
HETATM    6  C   UNK     0      16.490  -1.220   9.835  0.00  0.00    -0.027 A 
HETATM    7  C   UNK     0      16.503  -2.064   7.465  0.00  0.00     0.115 C 
HETATM    8  C   UNK     0      17.582  -2.661   6.578  0.00  0.00     0.021 A 
HETATM    9  N   UNK     0      18.833  -3.016   6.908  0.00  0.00    -0.361 N 
HETATM   10  C   UNK     0      19.466  -3.412   5.783  0.00  0.00     0.022 A 
HETATM   11  C   UNK     0      18.595  -3.319   4.701  0.00  0.00    -0.027 A 
HETATM   12  C   UNK     0      17.406  -2.846   5.195  0.00  0.00    -0.031 A 
HETATM   13  C   UNK     0      16.160  -2.589   4.378  0.00  0.00     0.051 C 
HETATM   14  C   UNK     0      20.926  -3.843   5.674  0.00  0.00     0.115 C 
HETATM   15  C   UNK     0      21.918  -2.763   6.075  0.00  0.00     0.021 A 
HETATM   16  N   UNK     0      22.009  -2.129   7.259  0.00  0.00    -0.361 N 
HETATM   17  C   UNK     0      22.964  -1.199   7.187  0.00  0.00     0.022 A 
HETATM   18  C   UNK     0      23.529  -1.235   5.897  0.00  0.00    -0.027 A 
HETATM   19  C   UNK     0      22.866  -2.219   5.211  0.00  0.00    -0.031 A 
HETATM   20  C   UNK     0      23.190  -2.616   3.782  0.00  0.00     0.051 C 
HETATM   21  C   UNK     0      23.406  -0.179   8.212  0.00  0.00     0.115 C 
HETATM   22  C   UNK     0      22.351   0.390   9.130  0.00  0.00     0.022 A 
HETATM   23  N   UNK     0      21.096   0.749   8.831  0.00  0.00    -0.361 N 
HETATM   24  C   UNK     0      20.461   1.066   9.977  0.00  0.00     0.021 A 
HETATM   25  C   UNK     0      21.331   0.917  11.040  0.00  0.00    -0.031 A 
HETATM   26  C   UNK     0      21.095   1.190  12.511  0.00  0.00     0.051 C 
HETATM   27  C   UNK     0      22.547   0.486  10.523  0.00  0.00    -0.027 A 
HETATM   28  C   UNK     0      19.000   1.443  10.157  0.00  0.00     0.115 C 
HETATM   29  H   UNK     0      18.400   0.223   7.544  0.00  0.00     0.165 HD
HETATM   30  H   UNK     0      19.258  -3.036   7.941  0.00  0.00     0.165 HD
HETATM   31  H   UNK     0      21.419  -2.375   8.181  0.00  0.00     0.165 HD
HETATM   32  H   UNK     0      20.658   0.823   7.801  0.00  0.00     0.165 HD
ENDROOT
BRANCH   6  33
HETATM   33  C   UNK     0      15.460  -2.150  10.424  0.00  0.00     0.051 C 
BRANCH  33  34
HETATM   34  C   UNK     0      14.073  -1.775   9.960  0.00  0.00     0.114 C 
BRANCH  34  35
HETATM   35  C   UNK     0      13.252  -1.510  11.176  0.00  0.00     0.139 C 
HETATM   36  O   UNK     0      13.573  -0.579  11.971  0.00  0.00    -0.650 OA
BRANCH  35  37
HETATM   37  O   UNK     0      12.118  -2.250  11.490  0.00  0.00    -0.776 OA
HETATM   38  H   UNK     0      11.196  -1.960  11.209  0.00  0.00     0.167 HD
ENDBRANCH  35  37
ENDBRANCH  34  35
ENDBRANCH  33  34
ENDBRANCH   6  33
BRANCH  27  39
HETATM   39  C   UNK     0      23.759   0.282  11.363  0.00  0.00     0.051 C 
BRANCH  39  40
HETATM   40  C   UNK     0      24.150  -1.087  11.698  0.00  0.00     0.114 C 
BRANCH  40  41
HETATM   41  C   UNK     0      23.223  -2.194  11.619  0.00  0.00     0.139 C 
HETATM   42  O   UNK     0      23.168  -2.971  10.656  0.00  0.00    -0.650 OA
BRANCH  41  43
HETATM   43  O   UNK     0      22.319  -2.417  12.696  0.00  0.00    -0.776 OA
HETATM   44  H   UNK     0      21.891  -1.576  13.064  0.00  0.00     0.167 HD
ENDBRANCH  41  43
ENDBRANCH  40  41
ENDBRANCH  39  40
ENDBRANCH  27  39
BRANCH  11  45
HETATM   45  C   UNK     0      18.849  -3.656   3.257  0.00  0.00     0.051 C 
BRANCH  45  46
HETATM   46  C   UNK     0      18.135  -4.870   2.784  0.00  0.00     0.114 C 
BRANCH  46  47
HETATM   47  C   UNK     0      18.915  -6.051   3.253  0.00  0.00     0.139 C 
HETATM   48  O   UNK     0      18.507  -6.677   4.241  0.00  0.00    -0.650 OA
BRANCH  47  49
HETATM   49  O   UNK     0      20.062  -6.438   2.606  0.00  0.00    -0.776 OA
HETATM   50  H   UNK     0      20.590  -5.797   2.003  0.00  0.00     0.167 HD
ENDBRANCH  47  49
ENDBRANCH  46  47
ENDBRANCH  45  46
ENDBRANCH  11  45
BRANCH  18  51
HETATM   51  C   UNK     0      24.654  -0.392   5.355  0.00  0.00     0.051 C 
BRANCH  51  52
HETATM   52  C   UNK     0      25.919  -1.224   5.502  0.00  0.00     0.114 C 
BRANCH  52  53
HETATM   53  C   UNK     0      26.974  -0.790   4.566  0.00  0.00     0.139 C 
HETATM   54  O   UNK     0      26.687  -0.518   3.389  0.00  0.00    -0.650 OA
BRANCH  53  55
HETATM   55  O   UNK     0      28.273  -0.694   5.003  0.00  0.00    -0.776 OA
HETATM   56  H   UNK     0      28.902   0.049   4.805  0.00  0.00     0.167 HD
ENDBRANCH  53  55
ENDBRANCH  52  53
ENDBRANCH  51  52
ENDBRANCH  18  51
TORSDOF 16
ENDMDL
MODEL 19
REMARK VINA RESULT:      -7.9     12.600     17.173
REMARK  16 active torsions:
REMARK  status: ('A' for Active; 'I' for Inactive)
REMARK    1  A    between atoms: C_6  and  C_7 
REMARK    2  A    between atoms: C_7  and  C_8 
REMARK    3  A    between atoms: C_8  and  C_9 
REMARK    4  A    between atoms: C_9  and  O_11 
REMARK    5  A    between atoms: C_16  and  C_17 
REMARK    6  A    between atoms: C_17  and  C_18 
REMARK    7  A    between atoms: C_18  and  C_19 
REMARK    8  A    between atoms: C_19  and  O_21 
REMARK    9  A    between atoms: C_28  and  C_29 
REMARK   10  A    between atoms: C_29  and  C_30 
REMARK   11  A    between atoms: C_30  and  C_31 
REMARK   12  A    between atoms: C_31  and  O_33 
REMARK   13  A    between atoms: C_42  and  C_43 
REMARK   14  A    between atoms: C_43  and  C_44 
REMARK   15  A    between atoms: C_44  and  C_45 
REMARK   16  A    between atoms: C_45  and  O_47 
ROOT
HETATM    1  C   UNK     0       8.864   5.771 -17.038  0.00  0.00     0.051 C 
HETATM    2  C   UNK     0       9.122   5.933 -15.553  0.00  0.00    -0.031 A 
HETATM    3  C   UNK     0      10.324   5.927 -14.864  0.00  0.00     0.021 A 
HETATM    4  N   UNK     0      10.074   6.074 -13.541  0.00  0.00    -0.361 N 
HETATM    5  C   UNK     0       8.740   6.181 -13.373  0.00  0.00     0.022 A 
HETATM    6  C   UNK     0       8.113   6.094 -14.612  0.00  0.00    -0.027 A 
HETATM    7  C   UNK     0       7.955   6.450 -12.127  0.00  0.00     0.115 C 
HETATM    8  C   UNK     0       8.507   7.510 -11.190  0.00  0.00     0.021 A 
HETATM    9  N   UNK     0       9.146   8.649 -11.499  0.00  0.00    -0.361 N 
HETATM   10  C   UNK     0       9.537   9.236 -10.349  0.00  0.00     0.022 A 
HETATM   11  C   UNK     0       9.131   8.459  -9.268  0.00  0.00    -0.027 A 
HETATM   12  C   UNK     0       8.481   7.370  -9.791  0.00  0.00    -0.031 A 
HETATM   13  C   UNK     0       7.861   6.252  -8.984  0.00  0.00     0.051 C 
HETATM   14  C   UNK     0      10.353  10.520 -10.223  0.00  0.00     0.115 C 
HETATM   15  C   UNK     0      11.727  10.442 -10.869  0.00  0.00     0.021 A 
HETATM   16  N   UNK     0      12.016  10.175 -12.156  0.00  0.00    -0.361 N 
HETATM   17  C   UNK     0      13.341  10.128 -12.308  0.00  0.00     0.022 A 
HETATM   18  C   UNK     0      13.945  10.387 -11.061  0.00  0.00    -0.027 A 
HETATM   19  C   UNK     0      12.923  10.583 -10.169  0.00  0.00    -0.031 A 
HETATM   20  C   UNK     0      13.135  10.928  -8.706  0.00  0.00     0.051 C 
HETATM   21  C   UNK     0      14.169   9.796 -13.529  0.00  0.00     0.115 C 
HETATM   22  C   UNK     0      13.611   8.775 -14.493  0.00  0.00     0.022 A 
HETATM   23  N   UNK     0      12.967   7.635 -14.213  0.00  0.00    -0.361 N 
HETATM   24  C   UNK     0      12.519   7.107 -15.370  0.00  0.00     0.021 A 
HETATM   25  C   UNK     0      12.892   7.922 -16.421  0.00  0.00    -0.031 A 
HETATM   26  C   UNK     0      12.657   7.732 -17.905  0.00  0.00     0.051 C 
HETATM   27  C   UNK     0      13.593   8.996 -15.885  0.00  0.00    -0.027 A 
HETATM   28  C   UNK     0      11.657   5.870 -15.555  0.00  0.00     0.115 C 
HETATM   29  H   UNK     0      10.840   6.061 -12.731  0.00  0.00     0.165 HD
HETATM   30  H   UNK     0       9.279   9.067 -12.527  0.00  0.00     0.165 HD
HETATM   31  H   UNK     0      11.270  10.063 -12.986  0.00  0.00     0.165 HD
HETATM   32  H   UNK     0      12.860   7.169 -13.199  0.00  0.00     0.165 HD
ENDROOT
BRANCH   6  33
HETATM   33  C   UNK     0       6.648   6.150 -14.964  0.00  0.00     0.051 C 
BRANCH  33  34
HETATM   34  C   UNK     0       6.007   4.792 -14.803  0.00  0.00     0.114 C 
BRANCH  34  35
HETATM   35  C   UNK     0       4.551   4.949 -15.080  0.00  0.00     0.139 C 
HETATM   36  O   UNK     0       4.150   5.219 -16.250  0.00  0.00    -0.650 OA
BRANCH  35  37
HETATM   37  O   UNK     0       3.581   4.810 -14.094  0.00  0.00    -0.776 OA
HETATM   38  H   UNK     0       3.818   4.604 -13.137  0.00  0.00     0.167 HD
ENDBRANCH  35  37
ENDBRANCH  34  35
ENDBRANCH  33  34
ENDBRANCH   6  33
BRANCH  27  39
HETATM   39  C   UNK     0      14.219  10.055 -16.722  0.00  0.00     0.051 C 
BRANCH  39  40
HETATM   40  C   UNK     0      15.679  10.143 -16.753  0.00  0.00     0.114 C 
BRANCH  40  41
HETATM   41  C   UNK     0      16.412  11.076 -15.928  0.00  0.00     0.139 C 
HETATM   42  O   UNK     0      16.143  12.283 -15.856  0.00  0.00    -0.650 OA
BRANCH  41  43
HETATM   43  O   UNK     0      17.506  10.600 -15.150  0.00  0.00    -0.776 OA
HETATM   44  H   UNK     0      17.886   9.714 -15.460  0.00  0.00     0.167 HD
ENDBRANCH  41  43
ENDBRANCH  40  41
ENDBRANCH  39  40
ENDBRANCH  27  39
BRANCH  11  45
HETATM   45  C   UNK     0       9.332   8.711  -7.798  0.00  0.00     0.051 C 
BRANCH  45  46
HETATM   46  C   UNK     0      10.730   8.519  -7.335  0.00  0.00     0.114 C 
BRANCH  46  47
HETATM   47  C   UNK     0      10.732   7.349  -6.411  0.00  0.00     0.139 C 
HETATM   48  O   UNK     0      10.902   7.552  -5.200  0.00  0.00    -0.650 OA
BRANCH  47  49
HETATM   49  O   UNK     0      10.553   6.076  -6.888  0.00  0.00    -0.776 OA
HETATM   50  H   UNK     0       9.623   5.644  -6.953  0.00  0.00     0.167 HD
ENDBRANCH  47  49
ENDBRANCH  46  47
ENDBRANCH  45  46
ENDBRANCH  11  45
BRANCH  18  51
HETATM   51  C   UNK     0      15.416  10.465 -10.743  0.00  0.00     0.051 C 
BRANCH  51  52
HETATM   52  C   UNK     0      15.800  11.932 -10.859  0.00  0.00     0.114 C 
BRANCH  52  53
HETATM   53  C   UNK     0      16.361  12.250 -12.187  0.00  0.00     0.139 C 
HETATM   54  O   UNK     0      17.492  11.843 -12.497  0.00  0.00    -0.650 OA
BRANCH  53  55
HETATM   55  O   UNK     0      15.626  12.999 -13.073  0.00  0.00    -0.776 OA
HETATM   56  H   UNK     0      14.736  13.403 -12.899  0.00  0.00     0.167 HD
ENDBRANCH  53  55
ENDBRANCH  52  53
ENDBRANCH  51  52
ENDBRANCH  18  51
TORSDOF 16
ENDMDL
MODEL 20
REMARK VINA RESULT:      -7.8     23.835     28.167
REMARK  16 active torsions:
REMARK  status: ('A' for Active; 'I' for Inactive)
REMARK    1  A    between atoms: C_6  and  C_7 
REMARK    2  A    between atoms: C_7  and  C_8 
REMARK    3  A    between atoms: C_8  and  C_9 
REMARK    4  A    between atoms: C_9  and  O_11 
REMARK    5  A    between atoms: C_16  and  C_17 
REMARK    6  A    between atoms: C_17  and  C_18 
REMARK    7  A    between atoms: C_18  and  C_19 
REMARK    8  A    between atoms: C_19  and  O_21 
REMARK    9  A    between atoms: C_28  and  C_29 
REMARK   10  A    between atoms: C_29  and  C_30 
REMARK   11  A    between atoms: C_30  and  C_31 
REMARK   12  A    between atoms: C_31  and  O_33 
REMARK   13  A    between atoms: C_42  and  C_43 
REMARK   14  A    between atoms: C_43  and  C_44 
REMARK   15  A    between atoms: C_44  and  C_45 
REMARK   16  A    between atoms: C_45  and  O_47 
ROOT
HETATM    1  C   UNK     0      -9.530  18.847  14.773  0.00  0.00     0.051 C 
HETATM    2  C   UNK     0      -9.056  20.148  14.158  0.00  0.00    -0.031 A 
HETATM    3  C   UNK     0      -8.261  20.355  13.042  0.00  0.00     0.021 A 
HETATM    4  N   UNK     0      -8.065  21.685  12.880  0.00  0.00    -0.361 N 
HETATM    5  C   UNK     0      -8.726  22.330  13.863  0.00  0.00     0.022 A 
HETATM    6  C   UNK     0      -9.354  21.399  14.683  0.00  0.00    -0.027 A 
HETATM    7  C   UNK     0      -8.907  23.800  14.083  0.00  0.00     0.115 C 
HETATM    8  C   UNK     0      -9.210  24.640  12.855  0.00  0.00     0.021 A 
HETATM    9  N   UNK     0      -9.945  24.315  11.780  0.00  0.00    -0.361 N 
HETATM   10  C   UNK     0      -9.866  25.332  10.896  0.00  0.00     0.022 A 
HETATM   11  C   UNK     0      -9.066  26.343  11.419  0.00  0.00    -0.027 A 
HETATM   12  C   UNK     0      -8.650  25.914  12.654  0.00  0.00    -0.031 A 
HETATM   13  C   UNK     0      -7.760  26.694  13.596  0.00  0.00     0.051 C 
HETATM   14  C   UNK     0     -10.495  25.368   9.506  0.00  0.00     0.115 C 
HETATM   15  C   UNK     0      -9.997  24.273   8.576  0.00  0.00     0.021 A 
HETATM   16  N   UNK     0     -10.063  22.942   8.765  0.00  0.00    -0.361 N 
HETATM   17  C   UNK     0      -9.452  22.324   7.751  0.00  0.00     0.022 A 
HETATM   18  C   UNK     0      -8.973  23.300   6.854  0.00  0.00    -0.027 A 
HETATM   19  C   UNK     0      -9.321  24.516   7.381  0.00  0.00    -0.031 A 
HETATM   20  C   UNK     0      -9.026  25.844   6.708  0.00  0.00     0.051 C 
HETATM   21  C   UNK     0      -9.190  20.852   7.526  0.00  0.00     0.115 C 
HETATM   22  C   UNK     0      -8.930  19.996   8.743  0.00  0.00     0.022 A 
HETATM   23  N   UNK     0      -8.206  20.295   9.829  0.00  0.00    -0.361 N 
HETATM   24  C   UNK     0      -8.363  19.303  10.729  0.00  0.00     0.021 A 
HETATM   25  C   UNK     0      -9.200  18.337  10.205  0.00  0.00    -0.031 A 
HETATM   26  C   UNK     0      -9.639  17.023  10.817  0.00  0.00     0.051 C 
HETATM   27  C   UNK     0      -9.576  18.757   8.934  0.00  0.00    -0.027 A 
HETATM   28  C   UNK     0      -7.814  19.236  12.144  0.00  0.00     0.115 C 
HETATM   29  H   UNK     0      -7.430  22.157  12.095  0.00  0.00     0.165 HD
HETATM   30  H   UNK     0     -10.561  23.391  11.664  0.00  0.00     0.165 HD
HETATM   31  H   UNK     0     -10.593  22.425   9.606  0.00  0.00     0.165 HD
HETATM   32  H   UNK     0      -7.543  21.190   9.954  0.00  0.00     0.165 HD
ENDROOT
BRANCH   6  33
HETATM   33  C   UNK     0     -10.203  21.604  15.912  0.00  0.00     0.051 C 
BRANCH  33  34
HETATM   34  C   UNK     0      -9.383  21.414  17.166  0.00  0.00     0.114 C 
BRANCH  34  35
HETATM   35  C   UNK     0      -8.902  22.759  17.593  0.00  0.00     0.139 C 
HETATM   36  O   UNK     0      -9.704  23.737  17.639  0.00  0.00    -0.650 OA
BRANCH  35  37
HETATM   37  O   UNK     0      -7.583  23.003  17.956  0.00  0.00    -0.776 OA
HETATM   38  H   UNK     0      -6.830  22.967  17.288  0.00  0.00     0.167 HD
ENDBRANCH  35  37
ENDBRANCH  34  35
ENDBRANCH  33  34
ENDBRANCH   6  33
BRANCH  27  39
HETATM   39  C   UNK     0     -10.424  17.938   8.027  0.00  0.00     0.051 C 
BRANCH  39  40
HETATM   40  C   UNK     0     -11.837  18.288   7.893  0.00  0.00     0.114 C 
BRANCH  40  41
HETATM   41  C   UNK     0     -12.464  19.293   8.722  0.00  0.00     0.139 C 
HETATM   42  O   UNK     0     -12.995  19.045   9.813  0.00  0.00    -0.650 OA
BRANCH  41  43
HETATM   43  O   UNK     0     -12.481  20.645   8.276  0.00  0.00    -0.776 OA
HETATM   44  H   UNK     0     -12.961  20.790   7.396  0.00  0.00     0.167 HD
ENDBRANCH  41  43
ENDBRANCH  40  41
ENDBRANCH  39  40
ENDBRANCH  27  39
BRANCH  11  45
HETATM   45  C   UNK     0      -8.698  27.667  10.803  0.00  0.00     0.051 C 
BRANCH  45  46
HETATM   46  C   UNK     0      -7.544  27.601   9.870  0.00  0.00     0.114 C 
BRANCH  46  47
HETATM   47  C   UNK     0      -7.772  28.627   8.813  0.00  0.00     0.139 C 
HETATM   48  O   UNK     0      -8.746  29.385   8.923  0.00  0.00    -0.650 OA
BRANCH  47  49
HETATM   49  O   UNK     0      -6.923  28.732   7.740  0.00  0.00    -0.776 OA
HETATM   50  H   UNK     0      -5.976  28.335   7.754  0.00  0.00     0.167 HD
ENDBRANCH  47  49
ENDBRANCH  46  47
ENDBRANCH  45  46
ENDBRANCH  11  45
BRANCH  18  51
HETATM   51  C   UNK     0      -8.241  23.083   5.555  0.00  0.00     0.051 C 
BRANCH  51  52
HETATM   52  C   UNK     0      -9.304  23.058   4.467  0.00  0.00     0.114 C 
BRANCH  52  53
HETATM   53  C   UNK     0      -8.823  23.672   3.214  0.00  0.00     0.139 C 
HETATM   54  O   UNK     0      -7.775  24.339   3.211  0.00  0.00    -0.650 OA
BRANCH  53  55
HETATM   55  O   UNK     0      -9.541  23.504   2.055  0.00  0.00    -0.776 OA
HETATM   56  H   UNK     0     -10.521  23.625   1.953  0.00  0.00     0.167 HD
ENDBRANCH  53  55
ENDBRANCH  52  53
ENDBRANCH  51  52
ENDBRANCH  18  51
TORSDOF 16
ENDMDL
