MODEL 1
REMARK VINA RESULT:     -10.2      0.000      0.000
REMARK  16 active torsions:
REMARK  status: ('A' for Active; 'I' for Inactive)
REMARK    1  A    between atoms: C_6  and  C_7 
REMARK    2  A    between atoms: C_7  and  C_8 
REMARK    3  A    between atoms: C_8  and  C_9 
REMARK    4  A    between atoms: C_9  and  O_11 
REMARK    5  A    between atoms: C_16  and  C_17 
REMARK    6  A    between atoms: C_17  and  C_18 
REMARK    7  A    between atoms: C_18  and  C_19 
REMARK    8  A    between atoms: C_19  and  O_21 
REMARK    9  A    between atoms: C_28  and  C_29 
REMARK   10  A    between atoms: C_29  and  C_30 
REMARK   11  A    between atoms: C_30  and  C_31 
REMARK   12  A    between atoms: C_31  and  O_33 
REMARK   13  A    between atoms: C_42  and  C_43 
REMARK   14  A    between atoms: C_43  and  C_44 
REMARK   15  A    between atoms: C_44  and  C_45 
REMARK   16  A    between atoms: C_45  and  O_47 
ROOT
HETATM    1  C   UNK     0      39.085   8.669  63.898  0.00  0.00     0.051 C 
HETATM    2  C   UNK     0      39.267  10.169  64.003  0.00  0.00    -0.031 A 
HETATM    3  C   UNK     0      38.720  11.179  63.226  0.00  0.00     0.021 A 
HETATM    4  N   UNK     0      39.186  12.373  63.663  0.00  0.00    -0.361 N 
HETATM    5  C   UNK     0      40.011  12.147  64.706  0.00  0.00     0.022 A 
HETATM    6  C   UNK     0      40.087  10.779  64.944  0.00  0.00    -0.027 A 
HETATM    7  C   UNK     0      40.706  13.127  65.598  0.00  0.00     0.115 C 
HETATM    8  C   UNK     0      39.897  14.329  66.052  0.00  0.00     0.021 A 
HETATM    9  N   UNK     0      38.590  14.394  66.350  0.00  0.00    -0.361 N 
HETATM   10  C   UNK     0      38.284  15.681  66.616  0.00  0.00     0.022 A 
HETATM   11  C   UNK     0      39.427  16.466  66.495  0.00  0.00    -0.027 A 
HETATM   12  C   UNK     0      40.447  15.621  66.140  0.00  0.00    -0.031 A 
HETATM   13  C   UNK     0      41.882  16.035  65.903  0.00  0.00     0.051 C 
HETATM   14  C   UNK     0      36.897  16.229  66.941  0.00  0.00     0.115 C 
HETATM   15  C   UNK     0      35.877  16.020  65.833  0.00  0.00     0.021 A 
HETATM   16  N   UNK     0      35.483  14.853  65.289  0.00  0.00    -0.361 N 
HETATM   17  C   UNK     0      34.625  15.100  64.296  0.00  0.00     0.022 A 
HETATM   18  C   UNK     0      34.445  16.493  64.194  0.00  0.00    -0.027 A 
HETATM   19  C   UNK     0      35.233  17.058  65.163  0.00  0.00    -0.031 A 
HETATM   20  C   UNK     0      35.309  18.551  65.426  0.00  0.00     0.051 C 
HETATM   21  C   UNK     0      33.955  14.147  63.332  0.00  0.00     0.115 C 
HETATM   22  C   UNK     0      34.731  12.924  62.906  0.00  0.00     0.022 A 
HETATM   23  N   UNK     0      36.034  12.830  62.607  0.00  0.00    -0.361 N 
HETATM   24  C   UNK     0      36.333  11.528  62.423  0.00  0.00     0.021 A 
HETATM   25  C   UNK     0      35.194  10.766  62.597  0.00  0.00    -0.031 A 
HETATM   26  C   UNK     0      35.017   9.269  62.455  0.00  0.00     0.051 C 
HETATM   27  C   UNK     0      34.155  11.637  62.907  0.00  0.00    -0.027 A 
HETATM   28  C   UNK     0      37.698  10.917  62.156  0.00  0.00     0.115 C 
HETATM   29  H   UNK     0      38.959  13.364  63.206  0.00  0.00     0.165 HD
HETATM   30  H   UNK     0      37.892  13.524  66.423  0.00  0.00     0.165 HD
HETATM   31  H   UNK     0      35.779  13.831  65.643  0.00  0.00     0.165 HD
HETATM   32  H   UNK     0      36.746  13.687  62.481  0.00  0.00     0.165 HD
ENDROOT
BRANCH   6  33
HETATM   33  C   UNK     0      40.871  10.017  65.982  0.00  0.00     0.051 C 
BRANCH  33  34
HETATM   34  C   UNK     0      40.062   9.849  67.246  0.00  0.00     0.114 C 
BRANCH  34  35
HETATM   35  C   UNK     0      40.930  10.254  68.389  0.00  0.00     0.139 C 
HETATM   36  O   UNK     0      42.123  10.625  68.183  0.00  0.00    -0.650 OA
BRANCH  35  37
HETATM   37  O   UNK     0      40.487  10.248  69.706  0.00  0.00    -0.776 OA
HETATM   38  H   UNK     0      40.088  11.065  70.139  0.00  0.00     0.167 HD
ENDBRANCH  35  37
ENDBRANCH  34  35
ENDBRANCH  33  34
ENDBRANCH   6  33
BRANCH  27  39
HETATM   39  C   UNK     0      32.749  11.188  63.095  0.00  0.00     0.051 C 
BRANCH  39  40
HETATM   40  C   UNK     0      32.336  10.739  64.425  0.00  0.00     0.114 C 
BRANCH  40  41
HETATM   41  C   UNK     0      32.756  11.416  65.631  0.00  0.00     0.139 C 
HETATM   42  O   UNK     0      32.323  12.523  65.980  0.00  0.00    -0.650 OA
BRANCH  41  43
HETATM   43  O   UNK     0      33.718  10.792  66.475  0.00  0.00    -0.776 OA
HETATM   44  H   UNK     0      33.471  10.785  67.458  0.00  0.00     0.167 HD
ENDBRANCH  41  43
ENDBRANCH  40  41
ENDBRANCH  39  40
ENDBRANCH  27  39
BRANCH  11  45
HETATM   45  C   UNK     0      39.576  17.950  66.702  0.00  0.00     0.051 C 
BRANCH  45  46
HETATM   46  C   UNK     0      39.063  18.773  65.578  0.00  0.00     0.114 C 
BRANCH  46  47
HETATM   47  C   UNK     0      40.162  19.695  65.168  0.00  0.00     0.139 C 
HETATM   48  O   UNK     0      41.316  19.443  65.542  0.00  0.00    -0.650 OA
BRANCH  47  49
HETATM   49  O   UNK     0      39.902  20.798  64.395  0.00  0.00    -0.776 OA
HETATM   50  H   UNK     0      38.949  21.047  64.104  0.00  0.00     0.167 HD
ENDBRANCH  47  49
ENDBRANCH  46  47
ENDBRANCH  45  46
ENDBRANCH  11  45
BRANCH  18  51
HETATM   51  C   UNK     0      33.553  17.245  63.240  0.00  0.00     0.051 C 
BRANCH  51  52
HETATM   52  C   UNK     0      32.198  17.358  63.923  0.00  0.00     0.114 C 
BRANCH  52  53
HETATM   53  C   UNK     0      31.096  16.958  63.027  0.00  0.00     0.139 C 
HETATM   54  O   UNK     0      31.194  17.140  61.802  0.00  0.00    -0.650 OA
BRANCH  53  55
HETATM   55  O   UNK     0      29.963  16.389  63.555  0.00  0.00    -0.776 OA
HETATM   56  H   UNK     0      29.688  16.411  64.509  0.00  0.00     0.167 HD
ENDBRANCH  53  55
ENDBRANCH  52  53
ENDBRANCH  51  52
ENDBRANCH  18  51
TORSDOF 16
ENDMDL
MODEL 2
REMARK VINA RESULT:     -10.2      1.930      2.316
REMARK  16 active torsions:
REMARK  status: ('A' for Active; 'I' for Inactive)
REMARK    1  A    between atoms: C_6  and  C_7 
REMARK    2  A    between atoms: C_7  and  C_8 
REMARK    3  A    between atoms: C_8  and  C_9 
REMARK    4  A    between atoms: C_9  and  O_11 
REMARK    5  A    between atoms: C_16  and  C_17 
REMARK    6  A    between atoms: C_17  and  C_18 
REMARK    7  A    between atoms: C_18  and  C_19 
REMARK    8  A    between atoms: C_19  and  O_21 
REMARK    9  A    between atoms: C_28  and  C_29 
REMARK   10  A    between atoms: C_29  and  C_30 
REMARK   11  A    between atoms: C_30  and  C_31 
REMARK   12  A    between atoms: C_31  and  O_33 
REMARK   13  A    between atoms: C_42  and  C_43 
REMARK   14  A    between atoms: C_43  and  C_44 
REMARK   15  A    between atoms: C_44  and  C_45 
REMARK   16  A    between atoms: C_45  and  O_47 
ROOT
HETATM    1  C   UNK     0      38.187   8.690  63.544  0.00  0.00     0.051 C 
HETATM    2  C   UNK     0      38.516  10.151  63.770  0.00  0.00    -0.031 A 
HETATM    3  C   UNK     0      38.305  11.239  62.938  0.00  0.00     0.021 A 
HETATM    4  N   UNK     0      38.786  12.354  63.538  0.00  0.00    -0.361 N 
HETATM    5  C   UNK     0      39.291  12.001  64.738  0.00  0.00     0.022 A 
HETATM    6  C   UNK     0      39.141  10.630  64.914  0.00  0.00    -0.027 A 
HETATM    7  C   UNK     0      39.853  12.863  65.825  0.00  0.00     0.115 C 
HETATM    8  C   UNK     0      39.106  14.150  66.130  0.00  0.00     0.021 A 
HETATM    9  N   UNK     0      37.784  14.376  66.101  0.00  0.00    -0.361 N 
HETATM   10  C   UNK     0      37.577  15.686  66.351  0.00  0.00     0.022 A 
HETATM   11  C   UNK     0      38.799  16.320  66.556  0.00  0.00    -0.027 A 
HETATM   12  C   UNK     0      39.767  15.357  66.418  0.00  0.00    -0.031 A 
HETATM   13  C   UNK     0      41.254  15.587  66.562  0.00  0.00     0.051 C 
HETATM   14  C   UNK     0      36.229  16.401  66.354  0.00  0.00     0.115 C 
HETATM   15  C   UNK     0      35.501  16.349  65.020  0.00  0.00     0.021 A 
HETATM   16  N   UNK     0      35.119  15.255  64.335  0.00  0.00    -0.361 N 
HETATM   17  C   UNK     0      34.573  15.632  63.177  0.00  0.00     0.022 A 
HETATM   18  C   UNK     0      34.591  17.039  63.108  0.00  0.00    -0.027 A 
HETATM   19  C   UNK     0      35.174  17.476  64.269  0.00  0.00    -0.031 A 
HETATM   20  C   UNK     0      35.360  18.941  64.621  0.00  0.00     0.051 C 
HETATM   21  C   UNK     0      34.055  14.796  62.028  0.00  0.00     0.115 C 
HETATM   22  C   UNK     0      34.762  13.492  61.742  0.00  0.00     0.022 A 
HETATM   23  N   UNK     0      36.077  13.237  61.767  0.00  0.00    -0.361 N 
HETATM   24  C   UNK     0      36.255  11.912  61.593  0.00  0.00     0.021 A 
HETATM   25  C   UNK     0      35.025  11.300  61.441  0.00  0.00    -0.031 A 
HETATM   26  C   UNK     0      34.712   9.841  61.181  0.00  0.00     0.051 C 
HETATM   27  C   UNK     0      34.054  12.291  61.532  0.00  0.00    -0.027 A 
HETATM   28  C   UNK     0      37.559  11.135  61.637  0.00  0.00     0.115 C 
HETATM   29  H   UNK     0      38.801  13.376  63.093  0.00  0.00     0.165 HD
HETATM   30  H   UNK     0      36.990  13.603  65.953  0.00  0.00     0.165 HD
HETATM   31  H   UNK     0      35.192  14.197  64.696  0.00  0.00     0.165 HD
HETATM   32  H   UNK     0      36.895  13.997  61.865  0.00  0.00     0.165 HD
ENDROOT
BRANCH   6  33
HETATM   33  C   UNK     0      39.543   9.750  66.071  0.00  0.00     0.051 C 
BRANCH  33  34
HETATM   34  C   UNK     0      41.032   9.495  66.057  0.00  0.00     0.114 C 
BRANCH  34  35
HETATM   35  C   UNK     0      41.615  10.191  67.240  0.00  0.00     0.139 C 
HETATM   36  O   UNK     0      40.957  10.275  68.318  0.00  0.00    -0.650 OA
BRANCH  35  37
HETATM   37  O   UNK     0      42.880  10.765  67.223  0.00  0.00    -0.776 OA
HETATM   38  H   UNK     0      43.478  10.765  68.034  0.00  0.00     0.167 HD
ENDBRANCH  35  37
ENDBRANCH  34  35
ENDBRANCH  33  34
ENDBRANCH   6  33
BRANCH  27  39
HETATM   39  C   UNK     0      32.602  12.022  61.346  0.00  0.00     0.051 C 
BRANCH  39  40
HETATM   40  C   UNK     0      32.081  11.944  59.982  0.00  0.00     0.114 C 
BRANCH  40  41
HETATM   41  C   UNK     0      31.568  13.103  59.285  0.00  0.00     0.139 C 
HETATM   42  O   UNK     0      31.186  13.078  58.107  0.00  0.00    -0.650 OA
BRANCH  41  43
HETATM   43  O   UNK     0      31.492  14.346  59.975  0.00  0.00    -0.776 OA
HETATM   44  H   UNK     0      32.008  14.374  60.846  0.00  0.00     0.167 HD
ENDBRANCH  41  43
ENDBRANCH  40  41
ENDBRANCH  39  40
ENDBRANCH  27  39
BRANCH  11  45
HETATM   45  C   UNK     0      39.068  17.766  66.872  0.00  0.00     0.051 C 
BRANCH  45  46
HETATM   46  C   UNK     0      38.926  18.678  65.708  0.00  0.00     0.114 C 
BRANCH  46  47
HETATM   47  C   UNK     0      40.240  19.355  65.514  0.00  0.00     0.139 C 
HETATM   48  O   UNK     0      41.179  19.052  66.264  0.00  0.00    -0.650 OA
BRANCH  47  49
HETATM   49  O   UNK     0      40.407  20.295  64.529  0.00  0.00    -0.776 OA
HETATM   50  H   UNK     0      39.660  20.949  64.266  0.00  0.00     0.167 HD
ENDBRANCH  47  49
ENDBRANCH  46  47
ENDBRANCH  45  46
ENDBRANCH  11  45
BRANCH  18  51
HETATM   51  C   UNK     0      34.063  17.920  62.005  0.00  0.00     0.051 C 
BRANCH  51  52
HETATM   52  C   UNK     0      32.654  18.320  62.417  0.00  0.00     0.114 C 
BRANCH  52  53
HETATM   53  C   UNK     0      31.631  17.673  61.574  0.00  0.00     0.139 C 
HETATM   54  O   UNK     0      31.947  17.183  60.478  0.00  0.00    -0.650 OA
BRANCH  53  55
HETATM   55  O   UNK     0      30.328  17.620  62.006  0.00  0.00    -0.776 OA
HETATM   56  H   UNK     0      29.726  16.832  61.951  0.00  0.00     0.167 HD
ENDBRANCH  53  55
ENDBRANCH  52  53
ENDBRANCH  51  52
ENDBRANCH  18  51
TORSDOF 16
ENDMDL
MODEL 3
REMARK VINA RESULT:     -10.0      4.295      9.989
REMARK  16 active torsions:
REMARK  status: ('A' for Active; 'I' for Inactive)
REMARK    1  A    between atoms: C_6  and  C_7 
REMARK    2  A    between atoms: C_7  and  C_8 
REMARK    3  A    between atoms: C_8  and  C_9 
REMARK    4  A    between atoms: C_9  and  O_11 
REMARK    5  A    between atoms: C_16  and  C_17 
REMARK    6  A    between atoms: C_17  and  C_18 
REMARK    7  A    between atoms: C_18  and  C_19 
REMARK    8  A    between atoms: C_19  and  O_21 
REMARK    9  A    between atoms: C_28  and  C_29 
REMARK   10  A    between atoms: C_29  and  C_30 
REMARK   11  A    between atoms: C_30  and  C_31 
REMARK   12  A    between atoms: C_31  and  O_33 
REMARK   13  A    between atoms: C_42  and  C_43 
REMARK   14  A    between atoms: C_43  and  C_44 
REMARK   15  A    between atoms: C_44  and  C_45 
REMARK   16  A    between atoms: C_45  and  O_47 
ROOT
HETATM    1  C   UNK     0      36.175  15.900  64.689  0.00  0.00     0.051 C 
HETATM    2  C   UNK     0      35.579  15.489  63.358  0.00  0.00    -0.031 A 
HETATM    3  C   UNK     0      36.166  14.801  62.307  0.00  0.00     0.021 A 
HETATM    4  N   UNK     0      35.266  14.682  61.301  0.00  0.00    -0.361 N 
HETATM    5  C   UNK     0      34.118  15.272  61.692  0.00  0.00     0.022 A 
HETATM    6  C   UNK     0      34.279  15.790  62.972  0.00  0.00    -0.027 A 
HETATM    7  C   UNK     0      32.795  15.336  60.993  0.00  0.00     0.115 C 
HETATM    8  C   UNK     0      32.317  14.061  60.321  0.00  0.00     0.021 A 
HETATM    9  N   UNK     0      32.483  12.791  60.722  0.00  0.00    -0.361 N 
HETATM   10  C   UNK     0      31.975  11.981  59.769  0.00  0.00     0.022 A 
HETATM   11  C   UNK     0      31.460  12.750  58.730  0.00  0.00    -0.027 A 
HETATM   12  C   UNK     0      31.672  14.061  59.071  0.00  0.00    -0.031 A 
HETATM   13  C   UNK     0      31.269  15.257  58.238  0.00  0.00     0.051 C 
HETATM   14  C   UNK     0      32.003  10.455  59.775  0.00  0.00     0.115 C 
HETATM   15  C   UNK     0      33.403   9.865  59.794  0.00  0.00     0.021 A 
HETATM   16  N   UNK     0      34.366  10.062  60.715  0.00  0.00    -0.361 N 
HETATM   17  C   UNK     0      35.475   9.424  60.334  0.00  0.00     0.022 A 
HETATM   18  C   UNK     0      35.220   8.772  59.111  0.00  0.00    -0.027 A 
HETATM   19  C   UNK     0      33.919   9.054  58.785  0.00  0.00    -0.031 A 
HETATM   20  C   UNK     0      33.222   8.514  57.549  0.00  0.00     0.051 C 
HETATM   21  C   UNK     0      36.844   9.389  60.974  0.00  0.00     0.115 C 
HETATM   22  C   UNK     0      37.314  10.636  61.684  0.00  0.00     0.022 A 
HETATM   23  N   UNK     0      37.160  11.913  61.310  0.00  0.00    -0.361 N 
HETATM   24  C   UNK     0      37.602  12.703  62.309  0.00  0.00     0.021 A 
HETATM   25  C   UNK     0      38.062  11.916  63.347  0.00  0.00    -0.031 A 
HETATM   26  C   UNK     0      38.687  12.340  64.660  0.00  0.00     0.051 C 
HETATM   27  C   UNK     0      37.889  10.589  62.971  0.00  0.00    -0.027 A 
HETATM   28  C   UNK     0      37.548  14.219  62.387  0.00  0.00     0.115 C 
HETATM   29  H   UNK     0      35.462  14.218  60.307  0.00  0.00     0.165 HD
HETATM   30  H   UNK     0      32.913  12.465  61.701  0.00  0.00     0.165 HD
HETATM   31  H   UNK     0      34.246  10.624  61.678  0.00  0.00     0.165 HD
HETATM   32  H   UNK     0      36.776  12.268  60.318  0.00  0.00     0.165 HD
ENDROOT
BRANCH   6  33
HETATM   33  C   UNK     0      33.306  16.540  63.845  0.00  0.00     0.051 C 
BRANCH  33  34
HETATM   34  C   UNK     0      32.505  15.585  64.698  0.00  0.00     0.114 C 
BRANCH  34  35
HETATM   35  C   UNK     0      31.096  16.072  64.711  0.00  0.00     0.139 C 
HETATM   36  O   UNK     0      30.255  15.570  65.513  0.00  0.00    -0.650 OA
BRANCH  35  37
HETATM   37  O   UNK     0      30.643  17.079  63.867  0.00  0.00    -0.776 OA
HETATM   38  H   UNK     0      30.645  16.977  62.865  0.00  0.00     0.167 HD
ENDBRANCH  35  37
ENDBRANCH  34  35
ENDBRANCH  33  34
ENDBRANCH   6  33
BRANCH  27  39
HETATM   39  C   UNK     0      38.336   9.444  63.809  0.00  0.00     0.051 C 
BRANCH  39  40
HETATM   40  C   UNK     0      37.325   8.513  64.309  0.00  0.00     0.114 C 
BRANCH  40  41
HETATM   41  C   UNK     0      37.540   7.084  64.338  0.00  0.00     0.139 C 
HETATM   42  O   UNK     0      37.685   6.436  65.383  0.00  0.00    -0.650 OA
BRANCH  41  43
HETATM   43  O   UNK     0      37.591   6.368  63.109  0.00  0.00    -0.776 OA
HETATM   44  H   UNK     0      38.511   6.321  62.689  0.00  0.00     0.167 HD
ENDBRANCH  41  43
ENDBRANCH  40  41
ENDBRANCH  39  40
ENDBRANCH  27  39
BRANCH  11  45
HETATM   45  C   UNK     0      30.789  12.292  57.463  0.00  0.00     0.051 C 
BRANCH  45  46
HETATM   46  C   UNK     0      29.408  11.782  57.657  0.00  0.00     0.114 C 
BRANCH  46  47
HETATM   47  C   UNK     0      29.421  10.331  57.316  0.00  0.00     0.139 C 
HETATM   48  O   UNK     0      28.734   9.556  57.996  0.00  0.00    -0.650 OA
BRANCH  47  49
HETATM   49  O   UNK     0      30.178   9.862  56.272  0.00  0.00    -0.776 OA
HETATM   50  H   UNK     0      30.404  10.444  55.457  0.00  0.00     0.167 HD
ENDBRANCH  47  49
ENDBRANCH  46  47
ENDBRANCH  45  46
ENDBRANCH  11  45
BRANCH  18  51
HETATM   51  C   UNK     0      36.158   7.908  58.309  0.00  0.00     0.051 C 
BRANCH  51  52
HETATM   52  C   UNK     0      35.549   6.514  58.295  0.00  0.00     0.114 C 
BRANCH  52  53
HETATM   53  C   UNK     0      36.106   5.660  59.362  0.00  0.00     0.139 C 
HETATM   54  O   UNK     0      35.670   4.510  59.528  0.00  0.00    -0.650 OA
BRANCH  53  55
HETATM   55  O   UNK     0      37.105   6.147  60.170  0.00  0.00    -0.776 OA
HETATM   56  H   UNK     0      37.066   6.979  60.710  0.00  0.00     0.167 HD
ENDBRANCH  53  55
ENDBRANCH  52  53
ENDBRANCH  51  52
ENDBRANCH  18  51
TORSDOF 16
ENDMDL
MODEL 4
REMARK VINA RESULT:      -9.8      2.991      7.909
REMARK  16 active torsions:
REMARK  status: ('A' for Active; 'I' for Inactive)
REMARK    1  A    between atoms: C_6  and  C_7 
REMARK    2  A    between atoms: C_7  and  C_8 
REMARK    3  A    between atoms: C_8  and  C_9 
REMARK    4  A    between atoms: C_9  and  O_11 
REMARK    5  A    between atoms: C_16  and  C_17 
REMARK    6  A    between atoms: C_17  and  C_18 
REMARK    7  A    between atoms: C_18  and  C_19 
REMARK    8  A    between atoms: C_19  and  O_21 
REMARK    9  A    between atoms: C_28  and  C_29 
REMARK   10  A    between atoms: C_29  and  C_30 
REMARK   11  A    between atoms: C_30  and  C_31 
REMARK   12  A    between atoms: C_31  and  O_33 
REMARK   13  A    between atoms: C_42  and  C_43 
REMARK   14  A    between atoms: C_43  and  C_44 
REMARK   15  A    between atoms: C_44  and  C_45 
REMARK   16  A    between atoms: C_45  and  O_47 
ROOT
HETATM    1  C   UNK     0      31.949  13.883  59.885  0.00  0.00     0.051 C 
HETATM    2  C   UNK     0      32.807  13.975  61.131  0.00  0.00    -0.031 A 
HETATM    3  C   UNK     0      33.210  12.971  61.997  0.00  0.00     0.021 A 
HETATM    4  N   UNK     0      33.944  13.518  62.995  0.00  0.00    -0.361 N 
HETATM    5  C   UNK     0      34.023  14.847  62.780  0.00  0.00     0.022 A 
HETATM    6  C   UNK     0      33.321  15.168  61.623  0.00  0.00    -0.027 A 
HETATM    7  C   UNK     0      34.791  15.889  63.532  0.00  0.00     0.115 C 
HETATM    8  C   UNK     0      36.203  15.523  63.954  0.00  0.00     0.021 A 
HETATM    9  N   UNK     0      37.104  14.775  63.300  0.00  0.00    -0.361 N 
HETATM   10  C   UNK     0      38.189  14.638  64.092  0.00  0.00     0.022 A 
HETATM   11  C   UNK     0      37.985  15.325  65.284  0.00  0.00    -0.027 A 
HETATM   12  C   UNK     0      36.735  15.885  65.205  0.00  0.00    -0.031 A 
HETATM   13  C   UNK     0      36.087  16.732  66.277  0.00  0.00     0.051 C 
HETATM   14  C   UNK     0      39.435  13.813  63.779  0.00  0.00     0.115 C 
HETATM   15  C   UNK     0      39.159  12.331  63.583  0.00  0.00     0.021 A 
HETATM   16  N   UNK     0      38.339  11.760  62.681  0.00  0.00    -0.361 N 
HETATM   17  C   UNK     0      38.319  10.440  62.880  0.00  0.00     0.022 A 
HETATM   18  C   UNK     0      39.175  10.136  63.957  0.00  0.00    -0.027 A 
HETATM   19  C   UNK     0      39.696  11.328  64.387  0.00  0.00    -0.031 A 
HETATM   20  C   UNK     0      40.702  11.451  65.517  0.00  0.00     0.051 C 
HETATM   21  C   UNK     0      37.511   9.366  62.189  0.00  0.00     0.115 C 
HETATM   22  C   UNK     0      36.121   9.729  61.723  0.00  0.00     0.022 A 
HETATM   23  N   UNK     0      35.204  10.476  62.352  0.00  0.00    -0.361 N 
HETATM   24  C   UNK     0      34.164  10.664  61.514  0.00  0.00     0.021 A 
HETATM   25  C   UNK     0      34.413  10.014  60.321  0.00  0.00    -0.031 A 
HETATM   26  C   UNK     0      33.531   9.901  59.095  0.00  0.00     0.051 C 
HETATM   27  C   UNK     0      35.659   9.408  60.431  0.00  0.00    -0.027 A 
HETATM   28  C   UNK     0      32.928  11.517  61.744  0.00  0.00     0.115 C 
HETATM   29  H   UNK     0      34.367  12.967  63.867  0.00  0.00     0.165 HD
HETATM   30  H   UNK     0      36.998  14.383  62.259  0.00  0.00     0.165 HD
HETATM   31  H   UNK     0      37.798  12.294  61.856  0.00  0.00     0.165 HD
HETATM   32  H   UNK     0      35.263  10.842  63.410  0.00  0.00     0.165 HD
ENDROOT
BRANCH   6  33
HETATM   33  C   UNK     0      33.101  16.504  60.960  0.00  0.00     0.051 C 
BRANCH  33  34
HETATM   34  C   UNK     0      31.989  17.264  61.643  0.00  0.00     0.114 C 
BRANCH  34  35
HETATM   35  C   UNK     0      30.762  17.102  60.812  0.00  0.00     0.139 C 
HETATM   36  O   UNK     0      30.806  17.302  59.564  0.00  0.00    -0.650 OA
BRANCH  35  37
HETATM   37  O   UNK     0      29.536  16.730  61.351  0.00  0.00    -0.776 OA
HETATM   38  H   UNK     0      28.735  16.534  60.773  0.00  0.00     0.167 HD
ENDBRANCH  35  37
ENDBRANCH  34  35
ENDBRANCH  33  34
ENDBRANCH   6  33
BRANCH  27  39
HETATM   39  C   UNK     0      36.241   8.551  59.362  0.00  0.00     0.051 C 
BRANCH  39  40
HETATM   40  C   UNK     0      35.860   7.139  59.320  0.00  0.00     0.114 C 
BRANCH  40  41
HETATM   41  C   UNK     0      36.473   6.150  60.178  0.00  0.00     0.139 C 
HETATM   42  O   UNK     0      36.437   6.201  61.415  0.00  0.00    -0.650 OA
BRANCH  41  43
HETATM   43  O   UNK     0      37.158   5.051  59.586  0.00  0.00    -0.776 OA
HETATM   44  H   UNK     0      37.022   4.962  58.586  0.00  0.00     0.167 HD
ENDBRANCH  41  43
ENDBRANCH  40  41
ENDBRANCH  39  40
ENDBRANCH  27  39
BRANCH  11  45
HETATM   45  C   UNK     0      38.912  15.464  66.462  0.00  0.00     0.051 C 
BRANCH  45  46
HETATM   46  C   UNK     0      39.793  16.659  66.401  0.00  0.00     0.114 C 
BRANCH  46  47
HETATM   47  C   UNK     0      41.189  16.190  66.632  0.00  0.00     0.139 C 
HETATM   48  O   UNK     0      42.047  17.022  66.958  0.00  0.00    -0.650 OA
BRANCH  47  49
HETATM   49  O   UNK     0      41.519  14.866  66.485  0.00  0.00    -0.776 OA
HETATM   50  H   UNK     0      42.478  14.525  66.625  0.00  0.00     0.167 HD
ENDBRANCH  47  49
ENDBRANCH  46  47
ENDBRANCH  45  46
ENDBRANCH  11  45
BRANCH  18  51
HETATM   51  C   UNK     0      39.496   8.780  64.530  0.00  0.00     0.051 C 
BRANCH  51  52
HETATM   52  C   UNK     0      38.383   8.459  65.516  0.00  0.00     0.114 C 
BRANCH  52  53
HETATM   53  C   UNK     0      37.947   7.053  65.414  0.00  0.00     0.139 C 
HETATM   54  O   UNK     0      37.874   6.350  66.435  0.00  0.00    -0.650 OA
BRANCH  53  55
HETATM   55  O   UNK     0      37.626   6.528  64.186  0.00  0.00    -0.776 OA
HETATM   56  H   UNK     0      37.279   5.614  64.014  0.00  0.00     0.167 HD
ENDBRANCH  53  55
ENDBRANCH  52  53
ENDBRANCH  51  52
ENDBRANCH  18  51
TORSDOF 16
ENDMDL
MODEL 5
REMARK VINA RESULT:      -9.7      2.467      7.424
REMARK  16 active torsions:
REMARK  status: ('A' for Active; 'I' for Inactive)
REMARK    1  A    between atoms: C_6  and  C_7 
REMARK    2  A    between atoms: C_7  and  C_8 
REMARK    3  A    between atoms: C_8  and  C_9 
REMARK    4  A    between atoms: C_9  and  O_11 
REMARK    5  A    between atoms: C_16  and  C_17 
REMARK    6  A    between atoms: C_17  and  C_18 
REMARK    7  A    between atoms: C_18  and  C_19 
REMARK    8  A    between atoms: C_19  and  O_21 
REMARK    9  A    between atoms: C_28  and  C_29 
REMARK   10  A    between atoms: C_29  and  C_30 
REMARK   11  A    between atoms: C_30  and  C_31 
REMARK   12  A    between atoms: C_31  and  O_33 
REMARK   13  A    between atoms: C_42  and  C_43 
REMARK   14  A    between atoms: C_43  and  C_44 
REMARK   15  A    between atoms: C_44  and  C_45 
REMARK   16  A    between atoms: C_45  and  O_47 
ROOT
HETATM    1  C   UNK     0      36.901  19.290  65.457  0.00  0.00     0.051 C 
HETATM    2  C   UNK     0      37.261  17.825  65.597  0.00  0.00    -0.031 A 
HETATM    3  C   UNK     0      36.438  16.710  65.570  0.00  0.00     0.021 A 
HETATM    4  N   UNK     0      37.190  15.601  65.768  0.00  0.00    -0.361 N 
HETATM    5  C   UNK     0      38.475  15.985  65.911  0.00  0.00     0.022 A 
HETATM    6  C   UNK     0      38.555  17.370  65.813  0.00  0.00    -0.027 A 
HETATM    7  C   UNK     0      39.708  15.148  66.058  0.00  0.00     0.115 C 
HETATM    8  C   UNK     0      39.810  13.924  65.164  0.00  0.00     0.021 A 
HETATM    9  N   UNK     0      39.388  13.774  63.899  0.00  0.00    -0.361 N 
HETATM   10  C   UNK     0      39.603  12.493  63.534  0.00  0.00     0.022 A 
HETATM   11  C   UNK     0      40.190  11.800  64.590  0.00  0.00    -0.027 A 
HETATM   12  C   UNK     0      40.323  12.696  65.620  0.00  0.00    -0.031 A 
HETATM   13  C   UNK     0      40.919  12.388  66.975  0.00  0.00     0.051 C 
HETATM   14  C   UNK     0      39.219  11.859  62.201  0.00  0.00     0.115 C 
HETATM   15  C   UNK     0      37.726  11.885  61.914  0.00  0.00     0.021 A 
HETATM   16  N   UNK     0      36.923  12.963  61.835  0.00  0.00    -0.361 N 
HETATM   17  C   UNK     0      35.666  12.560  61.638  0.00  0.00     0.022 A 
HETATM   18  C   UNK     0      35.650  11.152  61.576  0.00  0.00    -0.027 A 
HETATM   19  C   UNK     0      36.946  10.742  61.750  0.00  0.00    -0.031 A 
HETATM   20  C   UNK     0      37.383   9.289  61.716  0.00  0.00     0.051 C 
HETATM   21  C   UNK     0      34.390  13.366  61.551  0.00  0.00     0.115 C 
HETATM   22  C   UNK     0      34.292  14.610  62.402  0.00  0.00     0.022 A 
HETATM   23  N   UNK     0      34.707  14.789  63.662  0.00  0.00    -0.361 N 
HETATM   24  C   UNK     0      34.555  16.091  63.978  0.00  0.00     0.021 A 
HETATM   25  C   UNK     0      34.018  16.765  62.898  0.00  0.00    -0.031 A 
HETATM   26  C   UNK     0      33.630  18.224  62.782  0.00  0.00     0.051 C 
HETATM   27  C   UNK     0      33.840  15.838  61.877  0.00  0.00    -0.027 A 
HETATM   28  C   UNK     0      34.970  16.791  65.260  0.00  0.00     0.115 C 
HETATM   29  H   UNK     0      36.802  14.559  65.844  0.00  0.00     0.165 HD
HETATM   30  H   UNK     0      38.982  14.584  63.244  0.00  0.00     0.165 HD
HETATM   31  H   UNK     0      37.257  14.032  61.871  0.00  0.00     0.165 HD
HETATM   32  H   UNK     0      35.073  13.988  64.356  0.00  0.00     0.165 HD
ENDROOT
BRANCH   6  33
HETATM   33  C   UNK     0      39.752  18.282  65.909  0.00  0.00     0.051 C 
BRANCH  33  34
HETATM   34  C   UNK     0      40.069  18.597  67.352  0.00  0.00     0.114 C 
BRANCH  34  35
HETATM   35  C   UNK     0      40.966  19.789  67.361  0.00  0.00     0.139 C 
HETATM   36  O   UNK     0      42.159  19.691  66.950  0.00  0.00    -0.650 OA
BRANCH  35  37
HETATM   37  O   UNK     0      40.550  21.037  67.807  0.00  0.00    -0.776 OA
HETATM   38  H   UNK     0      39.724  21.154  68.372  0.00  0.00     0.167 HD
ENDBRANCH  35  37
ENDBRANCH  34  35
ENDBRANCH  33  34
ENDBRANCH   6  33
BRANCH  27  39
HETATM   39  C   UNK     0      33.213  16.181  60.571  0.00  0.00     0.051 C 
BRANCH  39  40
HETATM   40  C   UNK     0      31.816  15.806  60.353  0.00  0.00     0.114 C 
BRANCH  40  41
HETATM   41  C   UNK     0      30.757  16.788  60.280  0.00  0.00     0.139 C 
HETATM   42  O   UNK     0      30.746  17.722  59.467  0.00  0.00    -0.650 OA
BRANCH  41  43
HETATM   43  O   UNK     0      29.662  16.691  61.184  0.00  0.00    -0.776 OA
HETATM   44  H   UNK     0      29.097  17.529  61.249  0.00  0.00     0.167 HD
ENDBRANCH  41  43
ENDBRANCH  40  41
ENDBRANCH  39  40
ENDBRANCH  27  39
BRANCH  11  45
HETATM   45  C   UNK     0      40.617  10.358  64.648  0.00  0.00     0.051 C 
BRANCH  45  46
HETATM   46  C   UNK     0      39.496   9.389  64.552  0.00  0.00     0.114 C 
BRANCH  46  47
HETATM   47  C   UNK     0      39.370   8.726  65.881  0.00  0.00     0.139 C 
HETATM   48  O   UNK     0      38.775   7.641  65.948  0.00  0.00    -0.650 OA
BRANCH  47  49
HETATM   49  O   UNK     0      39.900   9.303  67.008  0.00  0.00    -0.776 OA
HETATM   50  H   UNK     0      40.881   9.169  67.279  0.00  0.00     0.167 HD
ENDBRANCH  47  49
ENDBRANCH  46  47
ENDBRANCH  45  46
ENDBRANCH  11  45
BRANCH  18  51
HETATM   51  C   UNK     0      34.467  10.249  61.344  0.00  0.00     0.051 C 
BRANCH  51  52
HETATM   52  C   UNK     0      34.165  10.316  59.854  0.00  0.00     0.114 C 
BRANCH  52  53
HETATM   53  C   UNK     0      34.755   9.179  59.122  0.00  0.00     0.139 C 
HETATM   54  O   UNK     0      34.827   8.063  59.661  0.00  0.00    -0.650 OA
BRANCH  53  55
HETATM   55  O   UNK     0      35.225   9.363  57.844  0.00  0.00    -0.776 OA
HETATM   56  H   UNK     0      36.168   9.543  57.590  0.00  0.00     0.167 HD
ENDBRANCH  53  55
ENDBRANCH  52  53
ENDBRANCH  51  52
ENDBRANCH  18  51
TORSDOF 16
ENDMDL
MODEL 6
REMARK VINA RESULT:      -9.6      1.573      7.129
REMARK  16 active torsions:
REMARK  status: ('A' for Active; 'I' for Inactive)
REMARK    1  A    between atoms: C_6  and  C_7 
REMARK    2  A    between atoms: C_7  and  C_8 
REMARK    3  A    between atoms: C_8  and  C_9 
REMARK    4  A    between atoms: C_9  and  O_11 
REMARK    5  A    between atoms: C_16  and  C_17 
REMARK    6  A    between atoms: C_17  and  C_18 
REMARK    7  A    between atoms: C_18  and  C_19 
REMARK    8  A    between atoms: C_19  and  O_21 
REMARK    9  A    between atoms: C_28  and  C_29 
REMARK   10  A    between atoms: C_29  and  C_30 
REMARK   11  A    between atoms: C_30  and  C_31 
REMARK   12  A    between atoms: C_31  and  O_33 
REMARK   13  A    between atoms: C_42  and  C_43 
REMARK   14  A    between atoms: C_43  and  C_44 
REMARK   15  A    between atoms: C_44  and  C_45 
REMARK   16  A    between atoms: C_45  and  O_47 
ROOT
HETATM    1  C   UNK     0      36.275  19.751  65.470  0.00  0.00     0.051 C 
HETATM    2  C   UNK     0      36.851  18.357  65.611  0.00  0.00    -0.031 A 
HETATM    3  C   UNK     0      36.204  17.160  65.874  0.00  0.00     0.021 A 
HETATM    4  N   UNK     0      37.122  16.168  65.945  0.00  0.00    -0.361 N 
HETATM    5  C   UNK     0      38.340  16.705  65.723  0.00  0.00     0.022 A 
HETATM    6  C   UNK     0      38.207  18.073  65.513  0.00  0.00    -0.027 A 
HETATM    7  C   UNK     0      39.670  16.029  65.601  0.00  0.00     0.115 C 
HETATM    8  C   UNK     0      39.709  14.741  64.797  0.00  0.00     0.021 A 
HETATM    9  N   UNK     0      39.009  14.420  63.698  0.00  0.00    -0.361 N 
HETATM   10  C   UNK     0      39.296  13.141  63.377  0.00  0.00     0.022 A 
HETATM   11  C   UNK     0      40.213  12.627  64.289  0.00  0.00    -0.027 A 
HETATM   12  C   UNK     0      40.478  13.630  65.186  0.00  0.00    -0.031 A 
HETATM   13  C   UNK     0      41.429  13.527  66.357  0.00  0.00     0.051 C 
HETATM   14  C   UNK     0      38.679  12.338  62.235  0.00  0.00     0.115 C 
HETATM   15  C   UNK     0      37.172  12.168  62.345  0.00  0.00     0.021 A 
HETATM   16  N   UNK     0      36.239  13.137  62.404  0.00  0.00    -0.361 N 
HETATM   17  C   UNK     0      35.037  12.579  62.568  0.00  0.00     0.022 A 
HETATM   18  C   UNK     0      35.194  11.179  62.608  0.00  0.00    -0.027 A 
HETATM   19  C   UNK     0      36.536  10.935  62.467  0.00  0.00    -0.031 A 
HETATM   20  C   UNK     0      37.140   9.543  62.420  0.00  0.00     0.051 C 
HETATM   21  C   UNK     0      33.684  13.224  62.761  0.00  0.00     0.115 C 
HETATM   22  C   UNK     0      33.636  14.529  63.522  0.00  0.00     0.022 A 
HETATM   23  N   UNK     0      34.325  14.877  64.616  0.00  0.00    -0.361 N 
HETATM   24  C   UNK     0      34.083  16.179  64.871  0.00  0.00     0.021 A 
HETATM   25  C   UNK     0      33.209  16.678  63.925  0.00  0.00    -0.031 A 
HETATM   26  C   UNK     0      32.613  18.066  63.815  0.00  0.00     0.051 C 
HETATM   27  C   UNK     0      32.908  15.640  63.050  0.00  0.00    -0.027 A 
HETATM   28  C   UNK     0      34.707  17.046  65.951  0.00  0.00     0.115 C 
HETATM   29  H   UNK     0      36.908  15.102  66.189  0.00  0.00     0.165 HD
HETATM   30  H   UNK     0      38.349  15.110  63.117  0.00  0.00     0.165 HD
HETATM   31  H   UNK     0      36.425  14.235  62.279  0.00  0.00     0.165 HD
HETATM   32  H   UNK     0      34.955  14.196  65.244  0.00  0.00     0.165 HD
ENDROOT
BRANCH   6  33
HETATM   33  C   UNK     0      39.257  19.118  65.234  0.00  0.00     0.051 C 
BRANCH  33  34
HETATM   34  C   UNK     0      39.790  19.700  66.522  0.00  0.00     0.114 C 
BRANCH  34  35
HETATM   35  C   UNK     0      41.220  19.292  66.638  0.00  0.00     0.139 C 
HETATM   36  O   UNK     0      41.762  19.190  67.777  0.00  0.00    -0.650 OA
BRANCH  35  37
HETATM   37  O   UNK     0      42.010  19.008  65.532  0.00  0.00    -0.776 OA
HETATM   38  H   UNK     0      42.970  18.714  65.621  0.00  0.00     0.167 HD
ENDBRANCH  35  37
ENDBRANCH  34  35
ENDBRANCH  33  34
ENDBRANCH   6  33
BRANCH  27  39
HETATM   39  C   UNK     0      31.936  15.778  61.932  0.00  0.00     0.051 C 
BRANCH  39  40
HETATM   40  C   UNK     0      32.388  16.412  60.693  0.00  0.00     0.114 C 
BRANCH  40  41
HETATM   41  C   UNK     0      31.792  17.628  60.187  0.00  0.00     0.139 C 
HETATM   42  O   UNK     0      32.392  18.709  60.126  0.00  0.00    -0.650 OA
BRANCH  41  43
HETATM   43  O   UNK     0      30.443  17.598  59.732  0.00  0.00    -0.776 OA
HETATM   44  H   UNK     0      29.925  16.772  60.007  0.00  0.00     0.167 HD
ENDBRANCH  41  43
ENDBRANCH  40  41
ENDBRANCH  39  40
ENDBRANCH  27  39
BRANCH  11  45
HETATM   45  C   UNK     0      40.830  11.255  64.332  0.00  0.00     0.051 C 
BRANCH  45  46
HETATM   46  C   UNK     0      39.893  10.182  64.752  0.00  0.00     0.114 C 
BRANCH  46  47
HETATM   47  C   UNK     0      40.441   9.582  66.003  0.00  0.00     0.139 C 
HETATM   48  O   UNK     0      39.823   8.647  66.531  0.00  0.00    -0.650 OA
BRANCH  47  49
HETATM   49  O   UNK     0      41.602  10.056  66.559  0.00  0.00    -0.776 OA
HETATM   50  H   UNK     0      41.867   9.845  67.529  0.00  0.00     0.167 HD
ENDBRANCH  47  49
ENDBRANCH  46  47
ENDBRANCH  45  46
ENDBRANCH  11  45
BRANCH  18  51
HETATM   51  C   UNK     0      34.122  10.130  62.753  0.00  0.00     0.051 C 
BRANCH  51  52
HETATM   52  C   UNK     0      34.145   9.695  64.211  0.00  0.00     0.114 C 
BRANCH  52  53
HETATM   53  C   UNK     0      33.083  10.351  64.997  0.00  0.00     0.139 C 
HETATM   54  O   UNK     0      31.915  10.361  64.577  0.00  0.00    -0.650 OA
BRANCH  53  55
HETATM   55  O   UNK     0      33.395  10.953  66.192  0.00  0.00    -0.776 OA
HETATM   56  H   UNK     0      32.963  10.772  67.067  0.00  0.00     0.167 HD
ENDBRANCH  53  55
ENDBRANCH  52  53
ENDBRANCH  51  52
ENDBRANCH  18  51
TORSDOF 16
ENDMDL
MODEL 7
REMARK VINA RESULT:      -9.5      3.673      7.980
REMARK  16 active torsions:
REMARK  status: ('A' for Active; 'I' for Inactive)
REMARK    1  A    between atoms: C_6  and  C_7 
REMARK    2  A    between atoms: C_7  and  C_8 
REMARK    3  A    between atoms: C_8  and  C_9 
REMARK    4  A    between atoms: C_9  and  O_11 
REMARK    5  A    between atoms: C_16  and  C_17 
REMARK    6  A    between atoms: C_17  and  C_18 
REMARK    7  A    between atoms: C_18  and  C_19 
REMARK    8  A    between atoms: C_19  and  O_21 
REMARK    9  A    between atoms: C_28  and  C_29 
REMARK   10  A    between atoms: C_29  and  C_30 
REMARK   11  A    between atoms: C_30  and  C_31 
REMARK   12  A    between atoms: C_31  and  O_33 
REMARK   13  A    between atoms: C_42  and  C_43 
REMARK   14  A    between atoms: C_43  and  C_44 
REMARK   15  A    between atoms: C_44  and  C_45 
REMARK   16  A    between atoms: C_45  and  O_47 
ROOT
HETATM    1  C   UNK     0      38.809  13.275  66.145  0.00  0.00     0.051 C 
HETATM    2  C   UNK     0      38.049  13.621  64.881  0.00  0.00    -0.031 A 
HETATM    3  C   UNK     0      38.157  13.074  63.612  0.00  0.00     0.021 A 
HETATM    4  N   UNK     0      37.301  13.715  62.781  0.00  0.00    -0.361 N 
HETATM    5  C   UNK     0      36.644  14.653  63.494  0.00  0.00     0.022 A 
HETATM    6  C   UNK     0      37.090  14.623  64.811  0.00  0.00    -0.027 A 
HETATM    7  C   UNK     0      35.533  15.563  63.074  0.00  0.00     0.115 C 
HETATM    8  C   UNK     0      34.438  14.953  62.217  0.00  0.00     0.021 A 
HETATM    9  N   UNK     0      33.924  13.714  62.275  0.00  0.00    -0.361 N 
HETATM   10  C   UNK     0      33.039  13.580  61.264  0.00  0.00     0.022 A 
HETATM   11  C   UNK     0      32.975  14.767  60.541  0.00  0.00    -0.027 A 
HETATM   12  C   UNK     0      33.854  15.636  61.136  0.00  0.00    -0.031 A 
HETATM   13  C   UNK     0      34.115  17.057  60.690  0.00  0.00     0.051 C 
HETATM   14  C   UNK     0      32.262  12.316  60.908  0.00  0.00     0.115 C 
HETATM   15  C   UNK     0      33.145  11.133  60.542  0.00  0.00     0.021 A 
HETATM   16  N   UNK     0      34.093  10.550  61.299  0.00  0.00    -0.361 N 
HETATM   17  C   UNK     0      34.690   9.590  60.590  0.00  0.00     0.022 A 
HETATM   18  C   UNK     0      34.097   9.538  59.313  0.00  0.00    -0.027 A 
HETATM   19  C   UNK     0      33.129  10.509  59.296  0.00  0.00    -0.031 A 
HETATM   20  C   UNK     0      32.218  10.771  58.111  0.00  0.00     0.051 C 
HETATM   21  C   UNK     0      35.855   8.696  60.953  0.00  0.00     0.115 C 
HETATM   22  C   UNK     0      36.930   9.277  61.841  0.00  0.00     0.022 A 
HETATM   23  N   UNK     0      37.458  10.507  61.809  0.00  0.00    -0.361 N 
HETATM   24  C   UNK     0      38.277  10.645  62.870  0.00  0.00     0.021 A 
HETATM   25  C   UNK     0      38.285   9.470  63.598  0.00  0.00    -0.031 A 
HETATM   26  C   UNK     0      39.077   9.125  64.843  0.00  0.00     0.051 C 
HETATM   27  C   UNK     0      37.430   8.580  62.959  0.00  0.00    -0.027 A 
HETATM   28  C   UNK     0      39.030  11.889  63.309  0.00  0.00     0.115 C 
HETATM   29  H   UNK     0      37.195  13.527  61.687  0.00  0.00     0.165 HD
HETATM   30  H   UNK     0      34.146  12.949  63.059  0.00  0.00     0.165 HD
HETATM   31  H   UNK     0      34.313  10.789  62.372  0.00  0.00     0.165 HD
HETATM   32  H   UNK     0      37.290  11.277  61.011  0.00  0.00     0.165 HD
ENDROOT
BRANCH   6  33
HETATM   33  C   UNK     0      36.681  15.466  65.993  0.00  0.00     0.051 C 
BRANCH  33  34
HETATM   34  C   UNK     0      37.482  16.745  66.042  0.00  0.00     0.114 C 
BRANCH  34  35
HETATM   35  C   UNK     0      36.531  17.876  65.843  0.00  0.00     0.139 C 
HETATM   36  O   UNK     0      35.288  17.697  65.996  0.00  0.00    -0.650 OA
BRANCH  35  37
HETATM   37  O   UNK     0      36.949  19.154  65.493  0.00  0.00    -0.776 OA
HETATM   38  H   UNK     0      36.839  19.515  64.559  0.00  0.00     0.167 HD
ENDBRANCH  35  37
ENDBRANCH  34  35
ENDBRANCH  33  34
ENDBRANCH   6  33
BRANCH  27  39
HETATM   39  C   UNK     0      37.233   7.177  63.414  0.00  0.00     0.051 C 
BRANCH  39  40
HETATM   40  C   UNK     0      35.986   6.837  64.098  0.00  0.00     0.114 C 
BRANCH  40  41
HETATM   41  C   UNK     0      35.879   6.812  65.540  0.00  0.00     0.139 C 
HETATM   42  O   UNK     0      36.840   6.600  66.292  0.00  0.00    -0.650 OA
BRANCH  41  43
HETATM   43  O   UNK     0      34.610   7.041  66.143  0.00  0.00    -0.776 OA
HETATM   44  H   UNK     0      34.612   7.750  66.866  0.00  0.00     0.167 HD
ENDBRANCH  41  43
ENDBRANCH  40  41
ENDBRANCH  39  40
ENDBRANCH  27  39
BRANCH  11  45
HETATM   45  C   UNK     0      32.129  15.094  59.340  0.00  0.00     0.051 C 
BRANCH  45  46
HETATM   46  C   UNK     0      30.953  15.950  59.641  0.00  0.00     0.114 C 
BRANCH  46  47
HETATM   47  C   UNK     0      31.006  17.116  58.713  0.00  0.00     0.139 C 
HETATM   48  O   UNK     0      30.881  16.910  57.497  0.00  0.00    -0.650 OA
BRANCH  47  49
HETATM   49  O   UNK     0      31.190  18.388  59.192  0.00  0.00    -0.776 OA
HETATM   50  H   UNK     0      31.202  18.596  60.197  0.00  0.00     0.167 HD
ENDBRANCH  47  49
ENDBRANCH  46  47
ENDBRANCH  45  46
ENDBRANCH  11  45
BRANCH  18  51
HETATM   51  C   UNK     0      34.419   8.600  58.179  0.00  0.00     0.051 C 
BRANCH  51  52
HETATM   52  C   UNK     0      33.373   7.497  58.228  0.00  0.00     0.114 C 
BRANCH  52  53
HETATM   53  C   UNK     0      33.939   6.186  57.856  0.00  0.00     0.139 C 
HETATM   54  O   UNK     0      33.709   5.705  56.735  0.00  0.00    -0.650 OA
BRANCH  53  55
HETATM   55  O   UNK     0      34.718   5.501  58.757  0.00  0.00    -0.776 OA
HETATM   56  H   UNK     0      34.770   5.674  59.733  0.00  0.00     0.167 HD
ENDBRANCH  53  55
ENDBRANCH  52  53
ENDBRANCH  51  52
ENDBRANCH  18  51
TORSDOF 16
ENDMDL
MODEL 8
REMARK VINA RESULT:      -9.3     31.088     33.623
REMARK  16 active torsions:
REMARK  status: ('A' for Active; 'I' for Inactive)
REMARK    1  A    between atoms: C_6  and  C_7 
REMARK    2  A    between atoms: C_7  and  C_8 
REMARK    3  A    between atoms: C_8  and  C_9 
REMARK    4  A    between atoms: C_9  and  O_11 
REMARK    5  A    between atoms: C_16  and  C_17 
REMARK    6  A    between atoms: C_17  and  C_18 
REMARK    7  A    between atoms: C_18  and  C_19 
REMARK    8  A    between atoms: C_19  and  O_21 
REMARK    9  A    between atoms: C_28  and  C_29 
REMARK   10  A    between atoms: C_29  and  C_30 
REMARK   11  A    between atoms: C_30  and  C_31 
REMARK   12  A    between atoms: C_31  and  O_33 
REMARK   13  A    between atoms: C_42  and  C_43 
REMARK   14  A    between atoms: C_43  and  C_44 
REMARK   15  A    between atoms: C_44  and  C_45 
REMARK   16  A    between atoms: C_45  and  O_47 
ROOT
HETATM    1  C   UNK     0      45.831  19.486  31.323  0.00  0.00     0.051 C 
HETATM    2  C   UNK     0      46.454  19.008  32.619  0.00  0.00    -0.031 A 
HETATM    3  C   UNK     0      46.021  18.023  33.492  0.00  0.00     0.021 A 
HETATM    4  N   UNK     0      46.875  17.956  34.540  0.00  0.00    -0.361 N 
HETATM    5  C   UNK     0      47.848  18.871  34.350  0.00  0.00     0.022 A 
HETATM    6  C   UNK     0      47.614  19.549  33.159  0.00  0.00    -0.027 A 
HETATM    7  C   UNK     0      49.077  19.136  35.162  0.00  0.00     0.115 C 
HETATM    8  C   UNK     0      49.839  17.922  35.663  0.00  0.00     0.021 A 
HETATM    9  N   UNK     0      50.025  16.742  35.052  0.00  0.00    -0.361 N 
HETATM   10  C   UNK     0      50.684  15.928  35.905  0.00  0.00     0.022 A 
HETATM   11  C   UNK     0      50.936  16.606  37.094  0.00  0.00    -0.027 A 
HETATM   12  C   UNK     0      50.407  17.863  36.948  0.00  0.00    -0.031 A 
HETATM   13  C   UNK     0      50.450  18.956  37.992  0.00  0.00     0.051 C 
HETATM   14  C   UNK     0      51.052  14.468  35.654  0.00  0.00     0.115 C 
HETATM   15  C   UNK     0      49.854  13.562  35.420  0.00  0.00     0.021 A 
HETATM   16  N   UNK     0      48.915  13.674  34.462  0.00  0.00    -0.361 N 
HETATM   17  C   UNK     0      47.993  12.724  34.639  0.00  0.00     0.022 A 
HETATM   18  C   UNK     0      48.355  11.951  35.760  0.00  0.00    -0.027 A 
HETATM   19  C   UNK     0      49.522  12.485  36.239  0.00  0.00    -0.031 A 
HETATM   20  C   UNK     0      50.281  11.926  37.429  0.00  0.00     0.051 C 
HETATM   21  C   UNK     0      46.709  12.464  33.885  0.00  0.00     0.115 C 
HETATM   22  C   UNK     0      45.963  13.660  33.343  0.00  0.00     0.022 A 
HETATM   23  N   UNK     0      45.765  14.849  33.927  0.00  0.00    -0.361 N 
HETATM   24  C   UNK     0      45.178  15.668  33.032  0.00  0.00     0.021 A 
HETATM   25  C   UNK     0      44.983  14.987  31.846  0.00  0.00    -0.031 A 
HETATM   26  C   UNK     0      44.327  15.467  30.568  0.00  0.00     0.051 C 
HETATM   27  C   UNK     0      45.477  13.700  32.020  0.00  0.00    -0.027 A 
HETATM   28  C   UNK     0      44.840  17.140  33.200  0.00  0.00     0.115 C 
HETATM   29  H   UNK     0      46.763  17.290  35.427  0.00  0.00     0.165 HD
HETATM   30  H   UNK     0      49.738  16.496  34.001  0.00  0.00     0.165 HD
HETATM   31  H   UNK     0      48.926  14.408  33.615  0.00  0.00     0.165 HD
HETATM   32  H   UNK     0      46.000  15.109  34.992  0.00  0.00     0.165 HD
ENDROOT
BRANCH   6  33
HETATM   33  C   UNK     0      48.397  20.659  32.504  0.00  0.00     0.051 C 
BRANCH  33  34
HETATM   34  C   UNK     0      49.482  20.097  31.617  0.00  0.00     0.114 C 
BRANCH  34  35
HETATM   35  C   UNK     0      50.461  21.192  31.361  0.00  0.00     0.139 C 
HETATM   36  O   UNK     0      50.424  22.253  32.049  0.00  0.00    -0.650 OA
BRANCH  35  37
HETATM   37  O   UNK     0      51.441  21.107  30.379  0.00  0.00    -0.776 OA
HETATM   38  H   UNK     0      51.262  20.689  29.480  0.00  0.00     0.167 HD
ENDBRANCH  35  37
ENDBRANCH  34  35
ENDBRANCH  33  34
ENDBRANCH   6  33
BRANCH  27  39
HETATM   39  C   UNK     0      45.379  12.645  30.975  0.00  0.00     0.051 C 
BRANCH  39  40
HETATM   40  C   UNK     0      46.444  12.555  29.978  0.00  0.00     0.114 C 
BRANCH  40  41
HETATM   41  C   UNK     0      47.795  12.173  30.325  0.00  0.00     0.139 C 
HETATM   42  O   UNK     0      48.797  12.807  29.969  0.00  0.00    -0.650 OA
BRANCH  41  43
HETATM   43  O   UNK     0      48.002  11.009  31.118  0.00  0.00    -0.776 OA
HETATM   44  H   UNK     0      48.191  11.196  32.095  0.00  0.00     0.167 HD
ENDBRANCH  41  43
ENDBRANCH  40  41
ENDBRANCH  39  40
ENDBRANCH  27  39
BRANCH  11  45
HETATM   45  C   UNK     0      51.646  16.113  38.326  0.00  0.00     0.051 C 
BRANCH  45  46
HETATM   46  C   UNK     0      53.120  16.293  38.289  0.00  0.00     0.114 C 
BRANCH  46  47
HETATM   47  C   UNK     0      53.727  14.940  38.136  0.00  0.00     0.139 C 
HETATM   48  O   UNK     0      54.312  14.669  37.078  0.00  0.00    -0.650 OA
BRANCH  47  49
HETATM   49  O   UNK     0      53.639  14.012  39.143  0.00  0.00    -0.776 OA
HETATM   50  H   UNK     0      54.391  13.339  39.331  0.00  0.00     0.167 HD
ENDBRANCH  47  49
ENDBRANCH  46  47
ENDBRANCH  45  46
ENDBRANCH  11  45
BRANCH  18  51
HETATM   51  C   UNK     0      47.637  10.755  36.331  0.00  0.00     0.051 C 
BRANCH  51  52
HETATM   52  C   UNK     0      48.383   9.529  35.824  0.00  0.00     0.114 C 
BRANCH  52  53
HETATM   53  C   UNK     0      47.713   8.920  34.659  0.00  0.00     0.139 C 
HETATM   54  O   UNK     0      48.028   9.267  33.510  0.00  0.00    -0.650 OA
BRANCH  53  55
HETATM   55  O   UNK     0      46.738   7.972  34.855  0.00  0.00    -0.776 OA
HETATM   56  H   UNK     0      46.237   7.816  35.697  0.00  0.00     0.167 HD
ENDBRANCH  53  55
ENDBRANCH  52  53
ENDBRANCH  51  52
ENDBRANCH  18  51
TORSDOF 16
ENDMDL
MODEL 9
REMARK VINA RESULT:      -9.2     31.848     34.918
REMARK  16 active torsions:
REMARK  status: ('A' for Active; 'I' for Inactive)
REMARK    1  A    between atoms: C_6  and  C_7 
REMARK    2  A    between atoms: C_7  and  C_8 
REMARK    3  A    between atoms: C_8  and  C_9 
REMARK    4  A    between atoms: C_9  and  O_11 
REMARK    5  A    between atoms: C_16  and  C_17 
REMARK    6  A    between atoms: C_17  and  C_18 
REMARK    7  A    between atoms: C_18  and  C_19 
REMARK    8  A    between atoms: C_19  and  O_21 
REMARK    9  A    between atoms: C_28  and  C_29 
REMARK   10  A    between atoms: C_29  and  C_30 
REMARK   11  A    between atoms: C_30  and  C_31 
REMARK   12  A    between atoms: C_31  and  O_33 
REMARK   13  A    between atoms: C_42  and  C_43 
REMARK   14  A    between atoms: C_43  and  C_44 
REMARK   15  A    between atoms: C_44  and  C_45 
REMARK   16  A    between atoms: C_45  and  O_47 
ROOT
HETATM    1  C   UNK     0      43.087  18.660  29.369  0.00  0.00     0.051 C 
HETATM    2  C   UNK     0      43.974  17.476  29.699  0.00  0.00    -0.031 A 
HETATM    3  C   UNK     0      45.339  17.438  29.933  0.00  0.00     0.021 A 
HETATM    4  N   UNK     0      45.712  16.156  30.160  0.00  0.00    -0.361 N 
HETATM    5  C   UNK     0      44.613  15.378  30.085  0.00  0.00     0.022 A 
HETATM    6  C   UNK     0      43.508  16.171  29.795  0.00  0.00    -0.027 A 
HETATM    7  C   UNK     0      44.464  13.911  30.347  0.00  0.00     0.115 C 
HETATM    8  C   UNK     0      45.196  13.358  31.557  0.00  0.00     0.021 A 
HETATM    9  N   UNK     0      45.412  13.944  32.745  0.00  0.00    -0.361 N 
HETATM   10  C   UNK     0      46.186  13.122  33.484  0.00  0.00     0.022 A 
HETATM   11  C   UNK     0      46.469  11.970  32.756  0.00  0.00    -0.027 A 
HETATM   12  C   UNK     0      45.848  12.112  31.541  0.00  0.00    -0.031 A 
HETATM   13  C   UNK     0      45.877  11.096  30.421  0.00  0.00     0.051 C 
HETATM   14  C   UNK     0      46.731  13.411  34.880  0.00  0.00     0.115 C 
HETATM   15  C   UNK     0      47.638  14.629  34.947  0.00  0.00     0.021 A 
HETATM   16  N   UNK     0      47.336  15.897  34.609  0.00  0.00    -0.361 N 
HETATM   17  C   UNK     0      48.425  16.657  34.744  0.00  0.00     0.022 A 
HETATM   18  C   UNK     0      49.485  15.848  35.201  0.00  0.00    -0.027 A 
HETATM   19  C   UNK     0      48.978  14.580  35.325  0.00  0.00    -0.031 A 
HETATM   20  C   UNK     0      49.783  13.396  35.827  0.00  0.00     0.051 C 
HETATM   21  C   UNK     0      48.634  18.121  34.429  0.00  0.00     0.115 C 
HETATM   22  C   UNK     0      47.877  18.696  33.254  0.00  0.00     0.022 A 
HETATM   23  N   UNK     0      47.644  18.133  32.061  0.00  0.00    -0.361 N 
HETATM   24  C   UNK     0      46.807  18.934  31.371  0.00  0.00     0.021 A 
HETATM   25  C   UNK     0      46.503  20.045  32.134  0.00  0.00    -0.031 A 
HETATM   26  C   UNK     0      45.642  21.240  31.778  0.00  0.00     0.051 C 
HETATM   27  C   UNK     0      47.176  19.916  33.344  0.00  0.00    -0.027 A 
HETATM   28  C   UNK     0      46.186  18.677  30.010  0.00  0.00     0.115 C 
HETATM   29  H   UNK     0      46.756  15.804  30.332  0.00  0.00     0.165 HD
HETATM   30  H   UNK     0      44.978  14.917  33.083  0.00  0.00     0.165 HD
HETATM   31  H   UNK     0      46.322  16.274  34.315  0.00  0.00     0.165 HD
HETATM   32  H   UNK     0      48.102  17.184  31.678  0.00  0.00     0.165 HD
ENDROOT
BRANCH   6  33
HETATM   33  C   UNK     0      42.062  15.788  29.603  0.00  0.00     0.051 C 
BRANCH  33  34
HETATM   34  C   UNK     0      41.886  14.977  28.341  0.00  0.00     0.114 C 
BRANCH  34  35
HETATM   35  C   UNK     0      41.097  15.805  27.385  0.00  0.00     0.139 C 
HETATM   36  O   UNK     0      40.562  16.886  27.768  0.00  0.00    -0.650 OA
BRANCH  35  37
HETATM   37  O   UNK     0      40.913  15.444  26.056  0.00  0.00    -0.776 OA
HETATM   38  H   UNK     0      41.322  15.967  25.298  0.00  0.00     0.167 HD
ENDBRANCH  35  37
ENDBRANCH  34  35
ENDBRANCH  33  34
ENDBRANCH   6  33
BRANCH  27  39
HETATM   39  C   UNK     0      47.149  20.961  34.403  0.00  0.00     0.051 C 
BRANCH  39  40
HETATM   40  C   UNK     0      48.295  21.862  34.518  0.00  0.00     0.114 C 
BRANCH  40  41
HETATM   41  C   UNK     0      49.347  21.902  33.527  0.00  0.00     0.139 C 
HETATM   42  O   UNK     0      49.281  22.570  32.487  0.00  0.00    -0.650 OA
BRANCH  41  43
HETATM   43  O   UNK     0      50.529  21.138  33.743  0.00  0.00    -0.776 OA
HETATM   44  H   UNK     0      51.065  21.416  34.556  0.00  0.00     0.167 HD
ENDBRANCH  41  43
ENDBRANCH  40  41
ENDBRANCH  39  40
ENDBRANCH  27  39
BRANCH  11  45
HETATM   45  C   UNK     0      47.283  10.773  33.167  0.00  0.00     0.051 C 
BRANCH  45  46
HETATM   46  C   UNK     0      47.184  10.439  34.611  0.00  0.00     0.114 C 
BRANCH  46  47
HETATM   47  C   UNK     0      47.645   9.030  34.772  0.00  0.00     0.139 C 
HETATM   48  O   UNK     0      48.849   8.821  34.974  0.00  0.00    -0.650 OA
BRANCH  47  49
HETATM   49  O   UNK     0      46.757   7.987  34.695  0.00  0.00    -0.776 OA
HETATM   50  H   UNK     0      45.806   8.052  35.076  0.00  0.00     0.167 HD
ENDBRANCH  47  49
ENDBRANCH  46  47
ENDBRANCH  45  46
ENDBRANCH  11  45
BRANCH  18  51
HETATM   51  C   UNK     0      50.897  16.264  35.522  0.00  0.00     0.051 C 
BRANCH  51  52
HETATM   52  C   UNK     0      50.848  16.911  36.898  0.00  0.00     0.114 C 
BRANCH  52  53
HETATM   53  C   UNK     0      51.431  16.039  37.936  0.00  0.00     0.139 C 
HETATM   54  O   UNK     0      52.536  15.505  37.750  0.00  0.00    -0.650 OA
BRANCH  53  55
HETATM   55  O   UNK     0      50.744  15.821  39.105  0.00  0.00    -0.776 OA
HETATM   56  H   UNK     0      49.911  15.289  39.202  0.00  0.00     0.167 HD
ENDBRANCH  53  55
ENDBRANCH  52  53
ENDBRANCH  51  52
ENDBRANCH  18  51
TORSDOF 16
ENDMDL
MODEL 10
REMARK VINA RESULT:      -9.2     31.248     33.652
REMARK  16 active torsions:
REMARK  status: ('A' for Active; 'I' for Inactive)
REMARK    1  A    between atoms: C_6  and  C_7 
REMARK    2  A    between atoms: C_7  and  C_8 
REMARK    3  A    between atoms: C_8  and  C_9 
REMARK    4  A    between atoms: C_9  and  O_11 
REMARK    5  A    between atoms: C_16  and  C_17 
REMARK    6  A    between atoms: C_17  and  C_18 
REMARK    7  A    between atoms: C_18  and  C_19 
REMARK    8  A    between atoms: C_19  and  O_21 
REMARK    9  A    between atoms: C_28  and  C_29 
REMARK   10  A    between atoms: C_29  and  C_30 
REMARK   11  A    between atoms: C_30  and  C_31 
REMARK   12  A    between atoms: C_31  and  O_33 
REMARK   13  A    between atoms: C_42  and  C_43 
REMARK   14  A    between atoms: C_43  and  C_44 
REMARK   15  A    between atoms: C_44  and  C_45 
REMARK   16  A    between atoms: C_45  and  O_47 
ROOT
HETATM    1  C   UNK     0      47.005  21.308  30.672  0.00  0.00     0.051 C 
HETATM    2  C   UNK     0      47.355  20.800  32.056  0.00  0.00    -0.031 A 
HETATM    3  C   UNK     0      46.680  19.891  32.856  0.00  0.00     0.021 A 
HETATM    4  N   UNK     0      47.343  19.759  34.029  0.00  0.00    -0.361 N 
HETATM    5  C   UNK     0      48.430  20.557  33.991  0.00  0.00     0.022 A 
HETATM    6  C   UNK     0      48.467  21.225  32.771  0.00  0.00    -0.027 A 
HETATM    7  C   UNK     0      49.535  20.708  34.989  0.00  0.00     0.115 C 
HETATM    8  C   UNK     0      50.067  19.432  35.616  0.00  0.00     0.021 A 
HETATM    9  N   UNK     0      50.215  18.222  35.054  0.00  0.00    -0.361 N 
HETATM   10  C   UNK     0      50.633  17.364  36.009  0.00  0.00     0.022 A 
HETATM   11  C   UNK     0      50.767  18.042  37.217  0.00  0.00    -0.027 A 
HETATM   12  C   UNK     0      50.412  19.345  36.977  0.00  0.00    -0.031 A 
HETATM   13  C   UNK     0      50.409  20.454  38.005  0.00  0.00     0.051 C 
HETATM   14  C   UNK     0      50.871  15.867  35.834  0.00  0.00     0.115 C 
HETATM   15  C   UNK     0      49.632  15.091  35.417  0.00  0.00     0.021 A 
HETATM   16  N   UNK     0      48.876  15.279  34.319  0.00  0.00    -0.361 N 
HETATM   17  C   UNK     0      47.838  14.441  34.352  0.00  0.00     0.022 A 
HETATM   18  C   UNK     0      47.926  13.663  35.524  0.00  0.00    -0.027 A 
HETATM   19  C   UNK     0      49.055  14.079  36.181  0.00  0.00    -0.031 A 
HETATM   20  C   UNK     0      49.546  13.472  37.482  0.00  0.00     0.051 C 
HETATM   21  C   UNK     0      46.669  14.303  33.403  0.00  0.00     0.115 C 
HETATM   22  C   UNK     0      46.159  15.559  32.737  0.00  0.00     0.022 A 
HETATM   23  N   UNK     0      46.005  16.777  33.271  0.00  0.00    -0.361 N 
HETATM   24  C   UNK     0      45.663  17.632  32.286  0.00  0.00     0.021 A 
HETATM   25  C   UNK     0      45.585  16.944  31.090  0.00  0.00    -0.031 A 
HETATM   26  C   UNK     0      45.200  17.459  29.718  0.00  0.00     0.051 C 
HETATM   27  C   UNK     0      45.898  15.616  31.353  0.00  0.00    -0.027 A 
HETATM   28  C   UNK     0      45.470  19.135  32.384  0.00  0.00     0.115 C 
HETATM   29  H   UNK     0      47.017  19.133  34.892  0.00  0.00     0.165 HD
HETATM   30  H   UNK     0      50.073  17.981  33.972  0.00  0.00     0.165 HD
HETATM   31  H   UNK     0      49.105  15.985  33.478  0.00  0.00     0.165 HD
HETATM   32  H   UNK     0      46.094  17.038  34.358  0.00  0.00     0.165 HD
ENDROOT
BRANCH   6  33
HETATM   33  C   UNK     0      49.464  22.225  32.242  0.00  0.00     0.051 C 
BRANCH  33  34
HETATM   34  C   UNK     0      50.555  21.531  31.463  0.00  0.00     0.114 C 
BRANCH  34  35
HETATM   35  C   UNK     0      51.859  21.944  32.056  0.00  0.00     0.139 C 
HETATM   36  O   UNK     0      52.915  21.916  31.358  0.00  0.00    -0.650 OA
BRANCH  35  37
HETATM   37  O   UNK     0      51.981  22.374  33.372  0.00  0.00    -0.776 OA
HETATM   38  H   UNK     0      51.181  22.631  33.926  0.00  0.00     0.167 HD
ENDBRANCH  35  37
ENDBRANCH  34  35
ENDBRANCH  33  34
ENDBRANCH   6  33
BRANCH  27  39
HETATM   39  C   UNK     0      45.850  14.551  30.315  0.00  0.00     0.051 C 
BRANCH  39  40
HETATM   40  C   UNK     0      44.722  13.620  30.327  0.00  0.00     0.114 C 
BRANCH  40  41
HETATM   41  C   UNK     0      44.904  12.188  30.404  0.00  0.00     0.139 C 
HETATM   42  O   UNK     0      44.989  11.567  31.472  0.00  0.00    -0.650 OA
BRANCH  41  43
HETATM   43  O   UNK     0      44.993  11.436  29.199  0.00  0.00    -0.776 OA
HETATM   44  H   UNK     0      44.178  11.504  28.602  0.00  0.00     0.167 HD
ENDBRANCH  41  43
ENDBRANCH  40  41
ENDBRANCH  39  40
ENDBRANCH  27  39
BRANCH  11  45
HETATM   45  C   UNK     0      51.211  17.508  38.552  0.00  0.00     0.051 C 
BRANCH  45  46
HETATM   46  C   UNK     0      52.685  17.403  38.704  0.00  0.00     0.114 C 
BRANCH  46  47
HETATM   47  C   UNK     0      53.031  15.953  38.658  0.00  0.00     0.139 C 
HETATM   48  O   UNK     0      53.933  15.584  37.893  0.00  0.00    -0.650 OA
BRANCH  47  49
HETATM   49  O   UNK     0      52.366  15.047  39.444  0.00  0.00    -0.776 OA
HETATM   50  H   UNK     0      52.197  15.211  40.443  0.00  0.00     0.167 HD
ENDBRANCH  47  49
ENDBRANCH  46  47
ENDBRANCH  45  46
ENDBRANCH  11  45
BRANCH  18  51
HETATM   51  C   UNK     0      46.998  12.568  35.981  0.00  0.00     0.051 C 
BRANCH  51  52
HETATM   52  C   UNK     0      47.503  11.285  35.339  0.00  0.00     0.114 C 
BRANCH  52  53
HETATM   53  C   UNK     0      47.939  10.300  36.348  0.00  0.00     0.139 C 
HETATM   54  O   UNK     0      48.974   9.640  36.166  0.00  0.00    -0.650 OA
BRANCH  53  55
HETATM   55  O   UNK     0      47.191  10.117  37.486  0.00  0.00    -0.776 OA
HETATM   56  H   UNK     0      47.181   9.302  38.054  0.00  0.00     0.167 HD
ENDBRANCH  53  55
ENDBRANCH  52  53
ENDBRANCH  51  52
ENDBRANCH  18  51
TORSDOF 16
ENDMDL
MODEL 11
REMARK VINA RESULT:      -9.1     33.606     36.038
REMARK  16 active torsions:
REMARK  status: ('A' for Active; 'I' for Inactive)
REMARK    1  A    between atoms: C_6  and  C_7 
REMARK    2  A    between atoms: C_7  and  C_8 
REMARK    3  A    between atoms: C_8  and  C_9 
REMARK    4  A    between atoms: C_9  and  O_11 
REMARK    5  A    between atoms: C_16  and  C_17 
REMARK    6  A    between atoms: C_17  and  C_18 
REMARK    7  A    between atoms: C_18  and  C_19 
REMARK    8  A    between atoms: C_19  and  O_21 
REMARK    9  A    between atoms: C_28  and  C_29 
REMARK   10  A    between atoms: C_29  and  C_30 
REMARK   11  A    between atoms: C_30  and  C_31 
REMARK   12  A    between atoms: C_31  and  O_33 
REMARK   13  A    between atoms: C_42  and  C_43 
REMARK   14  A    between atoms: C_43  and  C_44 
REMARK   15  A    between atoms: C_44  and  C_45 
REMARK   16  A    between atoms: C_45  and  O_47 
ROOT
HETATM    1  C   UNK     0      44.387  13.127  31.090  0.00  0.00     0.051 C 
HETATM    2  C   UNK     0      44.014  14.575  31.339  0.00  0.00    -0.031 A 
HETATM    3  C   UNK     0      44.491  15.454  32.298  0.00  0.00     0.021 A 
HETATM    4  N   UNK     0      43.850  16.639  32.167  0.00  0.00    -0.361 N 
HETATM    5  C   UNK     0      42.981  16.538  31.140  0.00  0.00     0.022 A 
HETATM    6  C   UNK     0      43.056  15.258  30.601  0.00  0.00    -0.027 A 
HETATM    7  C   UNK     0      42.104  17.585  30.528  0.00  0.00     0.115 C 
HETATM    8  C   UNK     0      42.722  18.957  30.322  0.00  0.00     0.021 A 
HETATM    9  N   UNK     0      43.985  19.263  29.986  0.00  0.00    -0.361 N 
HETATM   10  C   UNK     0      44.110  20.607  30.007  0.00  0.00     0.022 A 
HETATM   11  C   UNK     0      42.892  21.183  30.357  0.00  0.00    -0.027 A 
HETATM   12  C   UNK     0      42.013  20.148  30.557  0.00  0.00    -0.031 A 
HETATM   13  C   UNK     0      40.560  20.299  30.949  0.00  0.00     0.051 C 
HETATM   14  C   UNK     0      45.390  21.398  29.751  0.00  0.00     0.115 C 
HETATM   15  C   UNK     0      46.509  21.092  30.734  0.00  0.00     0.021 A 
HETATM   16  N   UNK     0      47.084  19.900  30.978  0.00  0.00    -0.361 N 
HETATM   17  C   UNK     0      47.978  20.037  31.960  0.00  0.00     0.022 A 
HETATM   18  C   UNK     0      47.993  21.386  32.368  0.00  0.00    -0.027 A 
HETATM   19  C   UNK     0      47.070  22.036  31.591  0.00  0.00    -0.031 A 
HETATM   20  C   UNK     0      46.791  23.525  31.680  0.00  0.00     0.051 C 
HETATM   21  C   UNK     0      48.832  18.998  32.649  0.00  0.00     0.115 C 
HETATM   22  C   UNK     0      48.247  17.616  32.821  0.00  0.00     0.022 A 
HETATM   23  N   UNK     0      46.993  17.281  33.151  0.00  0.00    -0.361 N 
HETATM   24  C   UNK     0      46.871  15.942  33.048  0.00  0.00     0.021 A 
HETATM   25  C   UNK     0      48.079  15.401  32.652  0.00  0.00    -0.031 A 
HETATM   26  C   UNK     0      48.448  13.947  32.440  0.00  0.00     0.051 C 
HETATM   27  C   UNK     0      48.975  16.452  32.500  0.00  0.00    -0.027 A 
HETATM   28  C   UNK     0      45.616  15.106  33.231  0.00  0.00     0.115 C 
HETATM   29  H   UNK     0      43.987  17.527  32.827  0.00  0.00     0.165 HD
HETATM   30  H   UNK     0      44.777  18.535  29.685  0.00  0.00     0.165 HD
HETATM   31  H   UNK     0      46.890  18.950  30.415  0.00  0.00     0.165 HD
HETATM   32  H   UNK     0      46.193  17.983  33.502  0.00  0.00     0.165 HD
ENDROOT
BRANCH   6  33
HETATM   33  C   UNK     0      42.295  14.643  29.454  0.00  0.00     0.051 C 
BRANCH  33  34
HETATM   34  C   UNK     0      43.200  14.433  28.262  0.00  0.00     0.114 C 
BRANCH  34  35
HETATM   35  C   UNK     0      42.728  15.342  27.178  0.00  0.00     0.139 C 
HETATM   36  O   UNK     0      41.651  15.992  27.315  0.00  0.00    -0.650 OA
BRANCH  35  37
HETATM   37  O   UNK     0      43.430  15.521  25.992  0.00  0.00    -0.776 OA
HETATM   38  H   UNK     0      43.064  15.217  25.104  0.00  0.00     0.167 HD
ENDBRANCH  35  37
ENDBRANCH  34  35
ENDBRANCH  33  34
ENDBRANCH   6  33
BRANCH  27  39
HETATM   39  C   UNK     0      50.407  16.252  32.149  0.00  0.00     0.051 C 
BRANCH  39  40
HETATM   40  C   UNK     0      50.781  16.252  30.735  0.00  0.00     0.114 C 
BRANCH  40  41
HETATM   41  C   UNK     0      50.305  17.257  29.811  0.00  0.00     0.139 C 
HETATM   42  O   UNK     0      50.628  18.450  29.874  0.00  0.00    -0.650 OA
BRANCH  41  43
HETATM   43  O   UNK     0      49.415  16.871  28.769  0.00  0.00    -0.776 OA
HETATM   44  H   UNK     0      49.311  17.558  28.032  0.00  0.00     0.167 HD
ENDBRANCH  41  43
ENDBRANCH  40  41
ENDBRANCH  39  40
ENDBRANCH  27  39
BRANCH  11  45
HETATM   45  C   UNK     0      42.545  22.640  30.501  0.00  0.00     0.051 C 
BRANCH  45  46
HETATM   46  C   UNK     0      43.128  23.286  31.704  0.00  0.00     0.114 C 
BRANCH  46  47
HETATM   47  C   UNK     0      42.889  24.752  31.578  0.00  0.00     0.139 C 
HETATM   48  O   UNK     0      41.868  25.138  30.992  0.00  0.00    -0.650 OA
BRANCH  47  49
HETATM   49  O   UNK     0      43.780  25.657  32.098  0.00  0.00    -0.776 OA
HETATM   50  H   UNK     0      43.498  26.606  32.370  0.00  0.00     0.167 HD
ENDBRANCH  47  49
ENDBRANCH  46  47
ENDBRANCH  45  46
ENDBRANCH  11  45
BRANCH  18  51
HETATM   51  C   UNK     0      48.856  22.024  33.426  0.00  0.00     0.051 C 
BRANCH  51  52
HETATM   52  C   UNK     0      49.891  22.858  32.685  0.00  0.00     0.114 C 
BRANCH  52  53
HETATM   53  C   UNK     0      51.149  22.115  32.477  0.00  0.00     0.139 C 
HETATM   54  O   UNK     0      51.330  21.481  31.425  0.00  0.00    -0.650 OA
BRANCH  53  55
HETATM   55  O   UNK     0      52.114  22.127  33.455  0.00  0.00    -0.776 OA
HETATM   56  H   UNK     0      52.378  21.358  34.024  0.00  0.00     0.167 HD
ENDBRANCH  53  55
ENDBRANCH  52  53
ENDBRANCH  51  52
ENDBRANCH  18  51
TORSDOF 16
ENDMDL
MODEL 12
REMARK VINA RESULT:      -9.1      3.760      8.433
REMARK  16 active torsions:
REMARK  status: ('A' for Active; 'I' for Inactive)
REMARK    1  A    between atoms: C_6  and  C_7 
REMARK    2  A    between atoms: C_7  and  C_8 
REMARK    3  A    between atoms: C_8  and  C_9 
REMARK    4  A    between atoms: C_9  and  O_11 
REMARK    5  A    between atoms: C_16  and  C_17 
REMARK    6  A    between atoms: C_17  and  C_18 
REMARK    7  A    between atoms: C_18  and  C_19 
REMARK    8  A    between atoms: C_19  and  O_21 
REMARK    9  A    between atoms: C_28  and  C_29 
REMARK   10  A    between atoms: C_29  and  C_30 
REMARK   11  A    between atoms: C_30  and  C_31 
REMARK   12  A    between atoms: C_31  and  O_33 
REMARK   13  A    between atoms: C_42  and  C_43 
REMARK   14  A    between atoms: C_43  and  C_44 
REMARK   15  A    between atoms: C_44  and  C_45 
REMARK   16  A    between atoms: C_45  and  O_47 
ROOT
HETATM    1  C   UNK     0      31.441  14.736  58.700  0.00  0.00     0.051 C 
HETATM    2  C   UNK     0      32.285  14.586  59.949  0.00  0.00    -0.031 A 
HETATM    3  C   UNK     0      32.436  13.489  60.782  0.00  0.00     0.021 A 
HETATM    4  N   UNK     0      33.268  13.818  61.799  0.00  0.00    -0.361 N 
HETATM    5  C   UNK     0      33.658  15.097  61.626  0.00  0.00     0.022 A 
HETATM    6  C   UNK     0      33.060  15.609  60.480  0.00  0.00    -0.027 A 
HETATM    7  C   UNK     0      34.641  15.907  62.413  0.00  0.00     0.115 C 
HETATM    8  C   UNK     0      35.924  15.208  62.825  0.00  0.00     0.021 A 
HETATM    9  N   UNK     0      36.631  14.290  62.148  0.00  0.00    -0.361 N 
HETATM   10  C   UNK     0      37.647  13.879  62.936  0.00  0.00     0.022 A 
HETATM   11  C   UNK     0      37.599  14.557  64.151  0.00  0.00    -0.027 A 
HETATM   12  C   UNK     0      36.516  15.396  64.087  0.00  0.00    -0.031 A 
HETATM   13  C   UNK     0      36.074  16.337  65.186  0.00  0.00     0.051 C 
HETATM   14  C   UNK     0      38.668  12.796  62.598  0.00  0.00     0.115 C 
HETATM   15  C   UNK     0      38.056  11.426  62.354  0.00  0.00     0.021 A 
HETATM   16  N   UNK     0      37.133  11.092  61.433  0.00  0.00    -0.361 N 
HETATM   17  C   UNK     0      36.804   9.807  61.589  0.00  0.00     0.022 A 
HETATM   18  C   UNK     0      37.556   9.277  62.656  0.00  0.00    -0.027 A 
HETATM   19  C   UNK     0      38.337  10.301  63.126  0.00  0.00    -0.031 A 
HETATM   20  C   UNK     0      39.333  10.149  64.261  0.00  0.00     0.051 C 
HETATM   21  C   UNK     0      35.773   8.973  60.862  0.00  0.00     0.115 C 
HETATM   22  C   UNK     0      34.510   9.666  60.407  0.00  0.00     0.022 A 
HETATM   23  N   UNK     0      33.788  10.587  61.059  0.00  0.00    -0.361 N 
HETATM   24  C   UNK     0      32.828  11.039  60.226  0.00  0.00     0.021 A 
HETATM   25  C   UNK     0      32.929  10.386  59.013  0.00  0.00    -0.031 A 
HETATM   26  C   UNK     0      32.056  10.521  57.782  0.00  0.00     0.051 C 
HETATM   27  C   UNK     0      33.998   9.502  59.104  0.00  0.00    -0.027 A 
HETATM   28  C   UNK     0      31.824  12.150  60.481  0.00  0.00     0.115 C 
HETATM   29  H   UNK     0      33.542  13.156  62.653  0.00  0.00     0.165 HD
HETATM   30  H   UNK     0      36.446  13.967  61.095  0.00  0.00     0.165 HD
HETATM   31  H   UNK     0      36.740  11.762  60.625  0.00  0.00     0.165 HD
HETATM   32  H   UNK     0      33.921  10.895  62.128  0.00  0.00     0.165 HD
ENDROOT
BRANCH   6  33
HETATM   33  C   UNK     0      33.164  16.980  59.860  0.00  0.00     0.051 C 
BRANCH  33  34
HETATM   34  C   UNK     0      34.098  16.960  58.673  0.00  0.00     0.114 C 
BRANCH  34  35
HETATM   35  C   UNK     0      33.669  18.050  57.750  0.00  0.00     0.139 C 
HETATM   36  O   UNK     0      34.507  18.905  57.340  0.00  0.00    -0.650 OA
BRANCH  35  37
HETATM   37  O   UNK     0      32.360  18.178  57.300  0.00  0.00    -0.776 OA
HETATM   38  H   UNK     0      31.824  19.017  57.450  0.00  0.00     0.167 HD
ENDBRANCH  35  37
ENDBRANCH  34  35
ENDBRANCH  33  34
ENDBRANCH   6  33
BRANCH  27  39
HETATM   39  C   UNK     0      34.373   8.567  58.009  0.00  0.00     0.051 C 
BRANCH  39  40
HETATM   40  C   UNK     0      34.486   7.143  58.321  0.00  0.00     0.114 C 
BRANCH  40  41
HETATM   41  C   UNK     0      35.742   6.432  58.231  0.00  0.00     0.139 C 
HETATM   42  O   UNK     0      36.088   5.552  59.031  0.00  0.00    -0.650 OA
BRANCH  41  43
HETATM   43  O   UNK     0      36.640   6.746  57.172  0.00  0.00    -0.776 OA
HETATM   44  H   UNK     0      37.457   7.272  57.458  0.00  0.00     0.167 HD
ENDBRANCH  41  43
ENDBRANCH  40  41
ENDBRANCH  39  40
ENDBRANCH  27  39
BRANCH  11  45
HETATM   45  C   UNK     0      38.523  14.439  65.333  0.00  0.00     0.051 C 
BRANCH  45  46
HETATM   46  C   UNK     0      38.310  13.216  66.148  0.00  0.00     0.114 C 
BRANCH  46  47
HETATM   47  C   UNK     0      39.655  12.717  66.556  0.00  0.00     0.139 C 
HETATM   48  O   UNK     0      40.659  13.275  66.091  0.00  0.00    -0.650 OA
BRANCH  47  49
HETATM   49  O   UNK     0      39.780  11.663  67.425  0.00  0.00    -0.776 OA
HETATM   50  H   UNK     0      39.072  11.460  68.141  0.00  0.00     0.167 HD
ENDBRANCH  47  49
ENDBRANCH  46  47
ENDBRANCH  45  46
ENDBRANCH  11  45
BRANCH  18  51
HETATM   51  C   UNK     0      37.546   7.866  63.185  0.00  0.00     0.051 C 
BRANCH  51  52
HETATM   52  C   UNK     0      37.062   7.955  64.625  0.00  0.00     0.114 C 
BRANCH  52  53
HETATM   53  C   UNK     0      35.604   7.753  64.729  0.00  0.00     0.139 C 
HETATM   54  O   UNK     0      34.825   8.574  64.220  0.00  0.00    -0.650 OA
BRANCH  53  55
HETATM   55  O   UNK     0      35.116   6.654  65.393  0.00  0.00    -0.776 OA
HETATM   56  H   UNK     0      35.567   5.774  65.476  0.00  0.00     0.167 HD
ENDBRANCH  53  55
ENDBRANCH  52  53
ENDBRANCH  51  52
ENDBRANCH  18  51
TORSDOF 16
ENDMDL
MODEL 13
REMARK VINA RESULT:      -9.0     33.303     35.835
REMARK  16 active torsions:
REMARK  status: ('A' for Active; 'I' for Inactive)
REMARK    1  A    between atoms: C_6  and  C_7 
REMARK    2  A    between atoms: C_7  and  C_8 
REMARK    3  A    between atoms: C_8  and  C_9 
REMARK    4  A    between atoms: C_9  and  O_11 
REMARK    5  A    between atoms: C_16  and  C_17 
REMARK    6  A    between atoms: C_17  and  C_18 
REMARK    7  A    between atoms: C_18  and  C_19 
REMARK    8  A    between atoms: C_19  and  O_21 
REMARK    9  A    between atoms: C_28  and  C_29 
REMARK   10  A    between atoms: C_29  and  C_30 
REMARK   11  A    between atoms: C_30  and  C_31 
REMARK   12  A    between atoms: C_31  and  O_33 
REMARK   13  A    between atoms: C_42  and  C_43 
REMARK   14  A    between atoms: C_43  and  C_44 
REMARK   15  A    between atoms: C_44  and  C_45 
REMARK   16  A    between atoms: C_45  and  O_47 
ROOT
HETATM    1  C   UNK     0      42.141  14.091  30.599  0.00  0.00     0.051 C 
HETATM    2  C   UNK     0      42.199  15.546  31.016  0.00  0.00    -0.031 A 
HETATM    3  C   UNK     0      42.938  16.143  32.025  0.00  0.00     0.021 A 
HETATM    4  N   UNK     0      42.652  17.466  32.058  0.00  0.00    -0.361 N 
HETATM    5  C   UNK     0      41.752  17.727  31.086  0.00  0.00     0.022 A 
HETATM    6  C   UNK     0      41.445  16.547  30.417  0.00  0.00    -0.027 A 
HETATM    7  C   UNK     0      41.182  19.038  30.643  0.00  0.00     0.115 C 
HETATM    8  C   UNK     0      42.152  20.201  30.536  0.00  0.00     0.021 A 
HETATM    9  N   UNK     0      43.437  20.186  30.147  0.00  0.00    -0.361 N 
HETATM   10  C   UNK     0      43.934  21.432  30.294  0.00  0.00     0.022 A 
HETATM   11  C   UNK     0      42.940  22.275  30.782  0.00  0.00    -0.027 A 
HETATM   12  C   UNK     0      41.815  21.507  30.936  0.00  0.00    -0.031 A 
HETATM   13  C   UNK     0      40.479  22.004  31.439  0.00  0.00     0.051 C 
HETATM   14  C   UNK     0      45.374  21.864  30.033  0.00  0.00     0.115 C 
HETATM   15  C   UNK     0      46.398  21.151  30.902  0.00  0.00     0.021 A 
HETATM   16  N   UNK     0      46.624  19.827  30.986  0.00  0.00    -0.361 N 
HETATM   17  C   UNK     0      47.557  19.599  31.913  0.00  0.00     0.022 A 
HETATM   18  C   UNK     0      47.965  20.835  32.453  0.00  0.00    -0.027 A 
HETATM   19  C   UNK     0      47.233  21.799  31.810  0.00  0.00    -0.031 A 
HETATM   20  C   UNK     0      47.387  23.287  32.066  0.00  0.00     0.051 C 
HETATM   21  C   UNK     0      48.110  18.292  32.435  0.00  0.00     0.115 C 
HETATM   22  C   UNK     0      47.167  17.114  32.506  0.00  0.00     0.022 A 
HETATM   23  N   UNK     0      45.882  17.101  32.885  0.00  0.00    -0.361 N 
HETATM   24  C   UNK     0      45.386  15.869  32.657  0.00  0.00     0.021 A 
HETATM   25  C   UNK     0      46.378  15.066  32.127  0.00  0.00    -0.031 A 
HETATM   26  C   UNK     0      46.316  13.601  31.746  0.00  0.00     0.051 C 
HETATM   27  C   UNK     0      47.527  15.841  32.022  0.00  0.00    -0.027 A 
HETATM   28  C   UNK     0      43.955  15.395  32.840  0.00  0.00     0.115 C 
HETATM   29  H   UNK     0      43.057  18.200  32.792  0.00  0.00     0.165 HD
HETATM   30  H   UNK     0      43.981  19.308  29.721  0.00  0.00     0.165 HD
HETATM   31  H   UNK     0      46.151  19.039  30.344  0.00  0.00     0.165 HD
HETATM   32  H   UNK     0      45.325  17.951  33.358  0.00  0.00     0.165 HD
ENDROOT
BRANCH   6  33
HETATM   33  C   UNK     0      40.499  16.301  29.269  0.00  0.00     0.051 C 
BRANCH  33  34
HETATM   34  C   UNK     0      41.110  16.759  27.965  0.00  0.00     0.114 C 
BRANCH  34  35
HETATM   35  C   UNK     0      41.314  15.549  27.118  0.00  0.00     0.139 C 
HETATM   36  O   UNK     0      42.350  14.838  27.261  0.00  0.00    -0.650 OA
BRANCH  35  37
HETATM   37  O   UNK     0      40.398  15.148  26.153  0.00  0.00    -0.776 OA
HETATM   38  H   UNK     0      39.500  15.592  26.051  0.00  0.00     0.167 HD
ENDBRANCH  35  37
ENDBRANCH  34  35
ENDBRANCH  33  34
ENDBRANCH   6  33
BRANCH  27  39
HETATM   39  C   UNK     0      48.832  15.297  31.556  0.00  0.00     0.051 C 
BRANCH  39  40
HETATM   40  C   UNK     0      49.162  15.407  30.135  0.00  0.00     0.114 C 
BRANCH  40  41
HETATM   41  C   UNK     0      49.712  16.615  29.563  0.00  0.00     0.139 C 
HETATM   42  O   UNK     0      50.576  17.304  30.122  0.00  0.00    -0.650 OA
BRANCH  41  43
HETATM   43  O   UNK     0      49.247  17.052  28.290  0.00  0.00    -0.776 OA
HETATM   44  H   UNK     0      48.733  17.925  28.309  0.00  0.00     0.167 HD
ENDBRANCH  41  43
ENDBRANCH  40  41
ENDBRANCH  39  40
ENDBRANCH  27  39
BRANCH  11  45
HETATM   45  C   UNK     0      43.022  23.745  31.095  0.00  0.00     0.051 C 
BRANCH  45  46
HETATM   46  C   UNK     0      43.735  24.057  32.360  0.00  0.00     0.114 C 
BRANCH  46  47
HETATM   47  C   UNK     0      43.030  25.209  32.992  0.00  0.00     0.139 C 
HETATM   48  O   UNK     0      42.067  25.712  32.397  0.00  0.00    -0.650 OA
BRANCH  47  49
HETATM   49  O   UNK     0      43.439  25.703  34.204  0.00  0.00    -0.776 OA
HETATM   50  H   UNK     0      44.386  26.070  34.352  0.00  0.00     0.167 HD
ENDBRANCH  47  49
ENDBRANCH  46  47
ENDBRANCH  45  46
ENDBRANCH  11  45
BRANCH  18  51
HETATM   51  C   UNK     0      49.011  21.085  33.508  0.00  0.00     0.051 C 
BRANCH  51  52
HETATM   52  C   UNK     0      50.348  21.117  32.784  0.00  0.00     0.114 C 
BRANCH  52  53
HETATM   53  C   UNK     0      51.140  22.309  33.144  0.00  0.00     0.139 C 
HETATM   54  O   UNK     0      50.748  23.439  32.812  0.00  0.00    -0.650 OA
BRANCH  53  55
HETATM   55  O   UNK     0      52.312  22.160  33.845  0.00  0.00    -0.776 OA
HETATM   56  H   UNK     0      52.962  22.880  34.055  0.00  0.00     0.167 HD
ENDBRANCH  53  55
ENDBRANCH  52  53
ENDBRANCH  51  52
ENDBRANCH  18  51
TORSDOF 16
ENDMDL
MODEL 14
REMARK VINA RESULT:      -9.0      3.542     10.012
REMARK  16 active torsions:
REMARK  status: ('A' for Active; 'I' for Inactive)
REMARK    1  A    between atoms: C_6  and  C_7 
REMARK    2  A    between atoms: C_7  and  C_8 
REMARK    3  A    between atoms: C_8  and  C_9 
REMARK    4  A    between atoms: C_9  and  O_11 
REMARK    5  A    between atoms: C_16  and  C_17 
REMARK    6  A    between atoms: C_17  and  C_18 
REMARK    7  A    between atoms: C_18  and  C_19 
REMARK    8  A    between atoms: C_19  and  O_21 
REMARK    9  A    between atoms: C_28  and  C_29 
REMARK   10  A    between atoms: C_29  and  C_30 
REMARK   11  A    between atoms: C_30  and  C_31 
REMARK   12  A    between atoms: C_31  and  O_33 
REMARK   13  A    between atoms: C_42  and  C_43 
REMARK   14  A    between atoms: C_43  and  C_44 
REMARK   15  A    between atoms: C_44  and  C_45 
REMARK   16  A    between atoms: C_45  and  O_47 
ROOT
HETATM    1  C   UNK     0      32.316  14.957  61.176  0.00  0.00     0.051 C 
HETATM    2  C   UNK     0      33.282  13.801  61.009  0.00  0.00    -0.031 A 
HETATM    3  C   UNK     0      34.655  13.769  61.193  0.00  0.00     0.021 A 
HETATM    4  N   UNK     0      35.111  12.528  60.898  0.00  0.00    -0.361 N 
HETATM    5  C   UNK     0      34.057  11.767  60.540  0.00  0.00     0.022 A 
HETATM    6  C   UNK     0      32.897  12.533  60.595  0.00  0.00    -0.027 A 
HETATM    7  C   UNK     0      34.004  10.307  60.212  0.00  0.00     0.115 C 
HETATM    8  C   UNK     0      34.813   9.379  61.102  0.00  0.00     0.021 A 
HETATM    9  N   UNK     0      35.038   9.473  62.421  0.00  0.00    -0.361 N 
HETATM   10  C   UNK     0      35.886   8.483  62.773  0.00  0.00     0.022 A 
HETATM   11  C   UNK     0      36.208   7.726  61.651  0.00  0.00    -0.027 A 
HETATM   12  C   UNK     0      35.535   8.285  60.594  0.00  0.00    -0.031 A 
HETATM   13  C   UNK     0      35.581   7.787  59.167  0.00  0.00     0.051 C 
HETATM   14  C   UNK     0      36.465   8.245  64.164  0.00  0.00     0.115 C 
HETATM   15  C   UNK     0      37.301   9.401  64.689  0.00  0.00     0.021 A 
HETATM   16  N   UNK     0      36.914  10.676  64.876  0.00  0.00    -0.361 N 
HETATM   17  C   UNK     0      37.960  11.397  65.284  0.00  0.00     0.022 A 
HETATM   18  C   UNK     0      39.082  10.549  65.376  0.00  0.00    -0.027 A 
HETATM   19  C   UNK     0      38.655   9.301  65.002  0.00  0.00    -0.031 A 
HETATM   20  C   UNK     0      39.546   8.072  64.994  0.00  0.00     0.051 C 
HETATM   21  C   UNK     0      38.071  12.880  65.560  0.00  0.00     0.115 C 
HETATM   22  C   UNK     0      37.238  13.812  64.712  0.00  0.00     0.022 A 
HETATM   23  N   UNK     0      36.994  13.741  63.397  0.00  0.00    -0.361 N 
HETATM   24  C   UNK     0      36.086  14.688  63.083  0.00  0.00     0.021 A 
HETATM   25  C   UNK     0      35.747  15.392  64.222  0.00  0.00    -0.031 A 
HETATM   26  C   UNK     0      34.804  16.569  64.369  0.00  0.00     0.051 C 
HETATM   27  C   UNK     0      36.471  14.850  65.277  0.00  0.00    -0.027 A 
HETATM   28  C   UNK     0      35.430  14.936  61.736  0.00  0.00     0.115 C 
HETATM   29  H   UNK     0      36.179  12.210  60.908  0.00  0.00     0.165 HD
HETATM   30  H   UNK     0      34.561  10.206  63.117  0.00  0.00     0.165 HD
HETATM   31  H   UNK     0      35.869  11.067  64.764  0.00  0.00     0.165 HD
HETATM   32  H   UNK     0      37.492  13.049  62.669  0.00  0.00     0.165 HD
ENDROOT
BRANCH   6  33
HETATM   33  C   UNK     0      31.470  12.156  60.286  0.00  0.00     0.051 C 
BRANCH  33  34
HETATM   34  C   UNK     0      31.127  12.488  58.853  0.00  0.00     0.114 C 
BRANCH  34  35
HETATM   35  C   UNK     0      31.285  11.239  58.055  0.00  0.00     0.139 C 
HETATM   36  O   UNK     0      30.467  10.283  58.200  0.00  0.00    -0.650 OA
BRANCH  35  37
HETATM   37  O   UNK     0      32.309  11.063  57.133  0.00  0.00    -0.776 OA
HETATM   38  H   UNK     0      32.791  10.184  57.031  0.00  0.00     0.167 HD
ENDBRANCH  35  37
ENDBRANCH  34  35
ENDBRANCH  33  34
ENDBRANCH   6  33
BRANCH  27  39
HETATM   39  C   UNK     0      36.422  15.398  66.660  0.00  0.00     0.051 C 
BRANCH  39  40
HETATM   40  C   UNK     0      37.226  16.581  66.967  0.00  0.00     0.114 C 
BRANCH  40  41
HETATM   41  C   UNK     0      38.595  16.718  66.524  0.00  0.00     0.139 C 
HETATM   42  O   UNK     0      38.983  17.620  65.769  0.00  0.00    -0.650 OA
BRANCH  41  43
HETATM   43  O   UNK     0      39.564  15.775  66.971  0.00  0.00    -0.776 OA
HETATM   44  H   UNK     0      40.514  16.125  66.984  0.00  0.00     0.167 HD
ENDBRANCH  41  43
ENDBRANCH  40  41
ENDBRANCH  39  40
ENDBRANCH  27  39
BRANCH  11  45
HETATM   45  C   UNK     0      37.106   6.521  61.553  0.00  0.00     0.051 C 
BRANCH  45  46
HETATM   46  C   UNK     0      36.388   5.223  61.626  0.00  0.00     0.114 C 
BRANCH  46  47
HETATM   47  C   UNK     0      36.329   4.673  60.242  0.00  0.00     0.139 C 
HETATM   48  O   UNK     0      35.243   4.253  59.818  0.00  0.00    -0.650 OA
BRANCH  47  49
HETATM   49  O   UNK     0      37.451   4.630  59.454  0.00  0.00    -0.776 OA
HETATM   50  H   UNK     0      37.963   3.757  59.281  0.00  0.00     0.167 HD
ENDBRANCH  47  49
ENDBRANCH  46  47
ENDBRANCH  45  46
ENDBRANCH  11  45
BRANCH  18  51
HETATM   51  C   UNK     0      40.478  10.904  65.817  0.00  0.00     0.051 C 
BRANCH  51  52
HETATM   52  C   UNK     0      40.365  11.357  67.265  0.00  0.00     0.114 C 
BRANCH  52  53
HETATM   53  C   UNK     0      40.935  10.365  68.197  0.00  0.00     0.139 C 
HETATM   54  O   UNK     0      42.096   9.957  68.036  0.00  0.00    -0.650 OA
BRANCH  53  55
HETATM   55  O   UNK     0      40.173   9.896  69.239  0.00  0.00    -0.776 OA
HETATM   56  H   UNK     0      39.906   8.951  69.388  0.00  0.00     0.167 HD
ENDBRANCH  53  55
ENDBRANCH  52  53
ENDBRANCH  51  52
ENDBRANCH  18  51
TORSDOF 16
ENDMDL
MODEL 15
REMARK VINA RESULT:      -9.0     31.543     34.665
REMARK  16 active torsions:
REMARK  status: ('A' for Active; 'I' for Inactive)
REMARK    1  A    between atoms: C_6  and  C_7 
REMARK    2  A    between atoms: C_7  and  C_8 
REMARK    3  A    between atoms: C_8  and  C_9 
REMARK    4  A    between atoms: C_9  and  O_11 
REMARK    5  A    between atoms: C_16  and  C_17 
REMARK    6  A    between atoms: C_17  and  C_18 
REMARK    7  A    between atoms: C_18  and  C_19 
REMARK    8  A    between atoms: C_19  and  O_21 
REMARK    9  A    between atoms: C_28  and  C_29 
REMARK   10  A    between atoms: C_29  and  C_30 
REMARK   11  A    between atoms: C_30  and  C_31 
REMARK   12  A    between atoms: C_31  and  O_33 
REMARK   13  A    between atoms: C_42  and  C_43 
REMARK   14  A    between atoms: C_43  and  C_44 
REMARK   15  A    between atoms: C_44  and  C_45 
REMARK   16  A    between atoms: C_45  and  O_47 
ROOT
HETATM    1  C   UNK     0      45.395  19.454  29.803  0.00  0.00     0.051 C 
HETATM    2  C   UNK     0      45.837  18.044  30.137  0.00  0.00    -0.031 A 
HETATM    3  C   UNK     0      47.093  17.576  30.489  0.00  0.00     0.021 A 
HETATM    4  N   UNK     0      47.029  16.235  30.667  0.00  0.00    -0.361 N 
HETATM    5  C   UNK     0      45.759  15.840  30.446  0.00  0.00     0.022 A 
HETATM    6  C   UNK     0      44.986  16.946  30.109  0.00  0.00    -0.027 A 
HETATM    7  C   UNK     0      45.142  14.485  30.601  0.00  0.00     0.115 C 
HETATM    8  C   UNK     0      45.539  13.692  31.834  0.00  0.00     0.021 A 
HETATM    9  N   UNK     0      45.798  14.145  33.071  0.00  0.00    -0.361 N 
HETATM   10  C   UNK     0      46.202  13.099  33.823  0.00  0.00     0.022 A 
HETATM   11  C   UNK     0      46.193  11.940  33.053  0.00  0.00    -0.027 A 
HETATM   12  C   UNK     0      45.776  12.307  31.799  0.00  0.00    -0.031 A 
HETATM   13  C   UNK     0      45.609  11.369  30.624  0.00  0.00     0.051 C 
HETATM   14  C   UNK     0      46.660  13.159  35.278  0.00  0.00     0.115 C 
HETATM   15  C   UNK     0      47.884  14.032  35.502  0.00  0.00     0.021 A 
HETATM   16  N   UNK     0      48.022  15.341  35.219  0.00  0.00    -0.361 N 
HETATM   17  C   UNK     0      49.271  15.721  35.499  0.00  0.00     0.022 A 
HETATM   18  C   UNK     0      49.978  14.608  35.996  0.00  0.00    -0.027 A 
HETATM   19  C   UNK     0      49.098  13.557  35.994  0.00  0.00    -0.031 A 
HETATM   20  C   UNK     0      49.444  12.166  36.491  0.00  0.00     0.051 C 
HETATM   21  C   UNK     0      49.949  17.057  35.295  0.00  0.00     0.115 C 
HETATM   22  C   UNK     0      49.532  17.876  34.096  0.00  0.00     0.022 A 
HETATM   23  N   UNK     0      49.264  17.452  32.854  0.00  0.00    -0.361 N 
HETATM   24  C   UNK     0      48.790  18.495  32.144  0.00  0.00     0.021 A 
HETATM   25  C   UNK     0      48.762  19.620  32.945  0.00  0.00    -0.031 A 
HETATM   26  C   UNK     0      48.350  21.034  32.589  0.00  0.00     0.051 C 
HETATM   27  C   UNK     0      49.233  19.249  34.199  0.00  0.00    -0.027 A 
HETATM   28  C   UNK     0      48.265  18.487  30.719  0.00  0.00     0.115 C 
HETATM   29  H   UNK     0      47.892  15.571  30.910  0.00  0.00     0.165 HD
HETATM   30  H   UNK     0      45.650  15.193  33.429  0.00  0.00     0.165 HD
HETATM   31  H   UNK     0      47.209  16.024  34.860  0.00  0.00     0.165 HD
HETATM   32  H   UNK     0      49.447  16.420  32.455  0.00  0.00     0.165 HD
ENDROOT
BRANCH   6  33
HETATM   33  C   UNK     0      43.521  17.038  29.764  0.00  0.00     0.051 C 
BRANCH  33  34
HETATM   34  C   UNK     0      43.293  16.713  28.307  0.00  0.00     0.114 C 
BRANCH  34  35
HETATM   35  C   UNK     0      42.418  15.506  28.251  0.00  0.00     0.139 C 
HETATM   36  O   UNK     0      41.881  15.059  29.306  0.00  0.00    -0.650 OA
BRANCH  35  37
HETATM   37  O   UNK     0      42.152  14.828  27.068  0.00  0.00    -0.776 OA
HETATM   38  H   UNK     0      42.833  14.756  26.329  0.00  0.00     0.167 HD
ENDBRANCH  35  37
ENDBRANCH  34  35
ENDBRANCH  33  34
ENDBRANCH   6  33
BRANCH  27  39
HETATM   39  C   UNK     0      49.416  20.217  35.315  0.00  0.00     0.051 C 
BRANCH  39  40
HETATM   40  C   UNK     0      50.754  20.758  35.552  0.00  0.00     0.114 C 
BRANCH  40  41
HETATM   41  C   UNK     0      51.173  22.036  35.023  0.00  0.00     0.139 C 
HETATM   42  O   UNK     0      50.392  22.968  34.788  0.00  0.00    -0.650 OA
BRANCH  41  43
HETATM   43  O   UNK     0      52.554  22.253  34.752  0.00  0.00    -0.776 OA
HETATM   44  H   UNK     0      52.966  23.022  35.266  0.00  0.00     0.167 HD
ENDBRANCH  41  43
ENDBRANCH  40  41
ENDBRANCH  39  40
ENDBRANCH  27  39
BRANCH  11  45
HETATM   45  C   UNK     0      46.554  10.536  33.459  0.00  0.00     0.051 C 
BRANCH  45  46
HETATM   46  C   UNK     0      47.974  10.368  33.861  0.00  0.00     0.114 C 
BRANCH  46  47
HETATM   47  C   UNK     0      48.071   9.084  34.611  0.00  0.00     0.139 C 
HETATM   48  O   UNK     0      49.152   8.787  35.140  0.00  0.00    -0.650 OA
BRANCH  47  49
HETATM   49  O   UNK     0      46.990   8.246  34.714  0.00  0.00    -0.776 OA
HETATM   50  H   UNK     0      46.496   7.889  33.887  0.00  0.00     0.167 HD
ENDBRANCH  47  49
ENDBRANCH  46  47
ENDBRANCH  45  46
ENDBRANCH  11  45
BRANCH  18  51
HETATM   51  C   UNK     0      51.408  14.555  36.467  0.00  0.00     0.051 C 
BRANCH  51  52
HETATM   52  C   UNK     0      51.357  14.582  37.988  0.00  0.00     0.114 C 
BRANCH  52  53
HETATM   53  C   UNK     0      51.452  15.957  38.516  0.00  0.00     0.139 C 
HETATM   54  O   UNK     0      52.245  16.765  38.007  0.00  0.00    -0.650 OA
BRANCH  53  55
HETATM   55  O   UNK     0      50.662  16.334  39.574  0.00  0.00    -0.776 OA
HETATM   56  H   UNK     0      50.720  17.193  40.070  0.00  0.00     0.167 HD
ENDBRANCH  53  55
ENDBRANCH  52  53
ENDBRANCH  51  52
ENDBRANCH  18  51
TORSDOF 16
ENDMDL
MODEL 16
REMARK VINA RESULT:      -8.9     31.775     34.781
REMARK  16 active torsions:
REMARK  status: ('A' for Active; 'I' for Inactive)
REMARK    1  A    between atoms: C_6  and  C_7 
REMARK    2  A    between atoms: C_7  and  C_8 
REMARK    3  A    between atoms: C_8  and  C_9 
REMARK    4  A    between atoms: C_9  and  O_11 
REMARK    5  A    between atoms: C_16  and  C_17 
REMARK    6  A    between atoms: C_17  and  C_18 
REMARK    7  A    between atoms: C_18  and  C_19 
REMARK    8  A    between atoms: C_19  and  O_21 
REMARK    9  A    between atoms: C_28  and  C_29 
REMARK   10  A    between atoms: C_29  and  C_30 
REMARK   11  A    between atoms: C_30  and  C_31 
REMARK   12  A    between atoms: C_31  and  O_33 
REMARK   13  A    between atoms: C_42  and  C_43 
REMARK   14  A    between atoms: C_43  and  C_44 
REMARK   15  A    between atoms: C_44  and  C_45 
REMARK   16  A    between atoms: C_45  and  O_47 
ROOT
HETATM    1  C   UNK     0      43.920  21.818  30.031  0.00  0.00     0.051 C 
HETATM    2  C   UNK     0      44.401  20.385  30.133  0.00  0.00    -0.031 A 
HETATM    3  C   UNK     0      45.694  19.896  30.231  0.00  0.00     0.021 A 
HETATM    4  N   UNK     0      45.653  18.543  30.267  0.00  0.00    -0.361 N 
HETATM    5  C   UNK     0      44.361  18.159  30.202  0.00  0.00     0.022 A 
HETATM    6  C   UNK     0      43.551  19.286  30.115  0.00  0.00    -0.027 A 
HETATM    7  C   UNK     0      43.769  16.787  30.299  0.00  0.00     0.115 C 
HETATM    8  C   UNK     0      44.349  15.868  31.360  0.00  0.00     0.021 A 
HETATM    9  N   UNK     0      44.799  16.184  32.584  0.00  0.00    -0.361 N 
HETATM   10  C   UNK     0      45.309  15.066  33.144  0.00  0.00     0.022 A 
HETATM   11  C   UNK     0      45.175  14.000  32.260  0.00  0.00    -0.027 A 
HETATM   12  C   UNK     0      44.570  14.498  31.134  0.00  0.00    -0.031 A 
HETATM   13  C   UNK     0      44.218  13.694  29.902  0.00  0.00     0.051 C 
HETATM   14  C   UNK     0      45.989  14.971  34.507  0.00  0.00     0.115 C 
HETATM   15  C   UNK     0      47.237  15.829  34.635  0.00  0.00     0.021 A 
HETATM   16  N   UNK     0      47.336  17.163  34.482  0.00  0.00    -0.361 N 
HETATM   17  C   UNK     0      48.615  17.524  34.605  0.00  0.00     0.022 A 
HETATM   18  C   UNK     0      49.385  16.372  34.860  0.00  0.00    -0.027 A 
HETATM   19  C   UNK     0      48.510  15.317  34.877  0.00  0.00    -0.031 A 
HETATM   20  C   UNK     0      48.922  13.883  35.156  0.00  0.00     0.051 C 
HETATM   21  C   UNK     0      49.260  18.883  34.449  0.00  0.00     0.115 C 
HETATM   22  C   UNK     0      48.666  19.824  33.428  0.00  0.00     0.022 A 
HETATM   23  N   UNK     0      48.206  19.537  32.203  0.00  0.00    -0.361 N 
HETATM   24  C   UNK     0      47.632  20.647  31.696  0.00  0.00     0.021 A 
HETATM   25  C   UNK     0      47.735  21.676  32.612  0.00  0.00    -0.031 A 
HETATM   26  C   UNK     0      47.280  23.115  32.484  0.00  0.00     0.051 C 
HETATM   27  C   UNK     0      48.393  21.174  33.728  0.00  0.00    -0.027 A 
HETATM   28  C   UNK     0      46.892  20.791  30.377  0.00  0.00     0.115 C 
HETATM   29  H   UNK     0      46.539  17.867  30.298  0.00  0.00     0.165 HD
HETATM   30  H   UNK     0      44.714  17.184  33.076  0.00  0.00     0.165 HD
HETATM   31  H   UNK     0      46.480  17.870  34.331  0.00  0.00     0.165 HD
HETATM   32  H   UNK     0      48.320  18.559  31.668  0.00  0.00     0.165 HD
ENDROOT
BRANCH   6  33
HETATM   33  C   UNK     0      42.051  19.398  30.014  0.00  0.00     0.051 C 
BRANCH  33  34
HETATM   34  C   UNK     0      41.436  19.597  31.379  0.00  0.00     0.114 C 
BRANCH  34  35
HETATM   35  C   UNK     0      40.887  18.282  31.818  0.00  0.00     0.139 C 
HETATM   36  O   UNK     0      41.043  17.893  33.012  0.00  0.00    -0.650 OA
BRANCH  35  37
HETATM   37  O   UNK     0      40.191  17.437  30.962  0.00  0.00    -0.776 OA
HETATM   38  H   UNK     0      40.584  16.572  30.629  0.00  0.00     0.167 HD
ENDBRANCH  35  37
ENDBRANCH  34  35
ENDBRANCH  33  34
ENDBRANCH   6  33
BRANCH  27  39
HETATM   39  C   UNK     0      48.752  22.014  34.903  0.00  0.00     0.051 C 
BRANCH  39  40
HETATM   40  C   UNK     0      50.047  22.693  34.901  0.00  0.00     0.114 C 
BRANCH  40  41
HETATM   41  C   UNK     0      51.245  22.072  35.421  0.00  0.00     0.139 C 
HETATM   42  O   UNK     0      51.253  21.324  36.408  0.00  0.00    -0.650 OA
BRANCH  41  43
HETATM   43  O   UNK     0      52.489  22.323  34.776  0.00  0.00    -0.776 OA
HETATM   44  H   UNK     0      53.297  22.253  35.383  0.00  0.00     0.167 HD
ENDBRANCH  41  43
ENDBRANCH  40  41
ENDBRANCH  39  40
ENDBRANCH  27  39
BRANCH  11  45
HETATM   45  C   UNK     0      45.588  12.565  32.446  0.00  0.00     0.051 C 
BRANCH  45  46
HETATM   46  C   UNK     0      47.048  12.332  32.311  0.00  0.00     0.114 C 
BRANCH  46  47
HETATM   47  C   UNK     0      47.374  11.104  33.092  0.00  0.00     0.139 C 
HETATM   48  O   UNK     0      46.951  11.012  34.253  0.00  0.00    -0.650 OA
BRANCH  47  49
HETATM   49  O   UNK     0      48.127  10.099  32.540  0.00  0.00    -0.776 OA
HETATM   50  H   UNK     0      47.702   9.325  32.015  0.00  0.00     0.167 HD
ENDBRANCH  47  49
ENDBRANCH  46  47
ENDBRANCH  45  46
ENDBRANCH  11  45
BRANCH  18  51
HETATM   51  C   UNK     0      50.871  16.284  35.095  0.00  0.00     0.051 C 
BRANCH  51  52
HETATM   52  C   UNK     0      51.090  16.620  36.562  0.00  0.00     0.114 C 
BRANCH  52  53
HETATM   53  C   UNK     0      51.284  15.408  37.381  0.00  0.00     0.139 C 
HETATM   54  O   UNK     0      52.161  14.584  37.074  0.00  0.00    -0.650 OA
BRANCH  53  55
HETATM   55  O   UNK     0      50.488  15.196  38.480  0.00  0.00    -0.776 OA
HETATM   56  H   UNK     0      50.394  15.804  39.259  0.00  0.00     0.167 HD
ENDBRANCH  53  55
ENDBRANCH  52  53
ENDBRANCH  51  52
ENDBRANCH  18  51
TORSDOF 16
ENDMDL
MODEL 17
REMARK VINA RESULT:      -8.9     31.967     34.513
REMARK  16 active torsions:
REMARK  status: ('A' for Active; 'I' for Inactive)
REMARK    1  A    between atoms: C_6  and  C_7 
REMARK    2  A    between atoms: C_7  and  C_8 
REMARK    3  A    between atoms: C_8  and  C_9 
REMARK    4  A    between atoms: C_9  and  O_11 
REMARK    5  A    between atoms: C_16  and  C_17 
REMARK    6  A    between atoms: C_17  and  C_18 
REMARK    7  A    between atoms: C_18  and  C_19 
REMARK    8  A    between atoms: C_19  and  O_21 
REMARK    9  A    between atoms: C_28  and  C_29 
REMARK   10  A    between atoms: C_29  and  C_30 
REMARK   11  A    between atoms: C_30  and  C_31 
REMARK   12  A    between atoms: C_31  and  O_33 
REMARK   13  A    between atoms: C_42  and  C_43 
REMARK   14  A    between atoms: C_43  and  C_44 
REMARK   15  A    between atoms: C_44  and  C_45 
REMARK   16  A    between atoms: C_45  and  O_47 
ROOT
HETATM    1  C   UNK     0      49.998  19.262  35.397  0.00  0.00     0.051 C 
HETATM    2  C   UNK     0      49.280  17.934  35.270  0.00  0.00    -0.031 A 
HETATM    3  C   UNK     0      47.946  17.677  34.992  0.00  0.00     0.021 A 
HETATM    4  N   UNK     0      47.742  16.339  35.007  0.00  0.00    -0.361 N 
HETATM    5  C   UNK     0      48.918  15.736  35.280  0.00  0.00     0.022 A 
HETATM    6  C   UNK     0      49.901  16.705  35.453  0.00  0.00    -0.027 A 
HETATM    7  C   UNK     0      49.254  14.278  35.319  0.00  0.00     0.115 C 
HETATM    8  C   UNK     0      48.672  13.415  34.213  0.00  0.00     0.021 A 
HETATM    9  N   UNK     0      48.468  13.732  32.925  0.00  0.00    -0.361 N 
HETATM   10  C   UNK     0      47.846  12.691  32.331  0.00  0.00     0.022 A 
HETATM   11  C   UNK     0      47.653  11.673  33.260  0.00  0.00    -0.027 A 
HETATM   12  C   UNK     0      48.171  12.122  34.448  0.00  0.00    -0.031 A 
HETATM   13  C   UNK     0      48.188  11.343  35.744  0.00  0.00     0.051 C 
HETATM   14  C   UNK     0      47.364  12.636  30.884  0.00  0.00     0.115 C 
HETATM   15  C   UNK     0      46.327  13.693  30.541  0.00  0.00     0.021 A 
HETATM   16  N   UNK     0      46.455  15.030  30.633  0.00  0.00    -0.361 N 
HETATM   17  C   UNK     0      45.296  15.606  30.305  0.00  0.00     0.022 A 
HETATM   18  C   UNK     0      44.371  14.596  29.974  0.00  0.00    -0.027 A 
HETATM   19  C   UNK     0      45.029  13.403  30.125  0.00  0.00    -0.031 A 
HETATM   20  C   UNK     0      44.404  12.051  29.833  0.00  0.00     0.051 C 
HETATM   21  C   UNK     0      44.897  17.064  30.317  0.00  0.00     0.115 C 
HETATM   22  C   UNK     0      45.502  17.944  31.385  0.00  0.00     0.022 A 
HETATM   23  N   UNK     0      45.721  17.654  32.674  0.00  0.00    -0.361 N 
HETATM   24  C   UNK     0      46.411  18.672  33.227  0.00  0.00     0.021 A 
HETATM   25  C   UNK     0      46.632  19.647  32.273  0.00  0.00    -0.031 A 
HETATM   26  C   UNK     0      47.322  20.987  32.421  0.00  0.00     0.051 C 
HETATM   27  C   UNK     0      46.060  19.204  31.086  0.00  0.00    -0.027 A 
HETATM   28  C   UNK     0      46.968  18.760  34.637  0.00  0.00     0.115 C 
HETATM   29  H   UNK     0      46.760  15.831  34.865  0.00  0.00     0.165 HD
HETATM   30  H   UNK     0      48.807  14.669  32.420  0.00  0.00     0.165 HD
HETATM   31  H   UNK     0      47.397  15.582  30.889  0.00  0.00     0.165 HD
HETATM   32  H   UNK     0      45.353  16.745  33.218  0.00  0.00     0.165 HD
ENDROOT
BRANCH   6  33
HETATM   33  C   UNK     0      51.366  16.553  35.777  0.00  0.00     0.051 C 
BRANCH  33  34
HETATM   34  C   UNK     0      51.556  15.700  37.009  0.00  0.00     0.114 C 
BRANCH  34  35
HETATM   35  C   UNK     0      51.384  16.585  38.196  0.00  0.00     0.139 C 
HETATM   36  O   UNK     0      51.863  17.756  38.193  0.00  0.00    -0.650 OA
BRANCH  35  37
HETATM   37  O   UNK     0      50.703  16.182  39.339  0.00  0.00    -0.776 OA
HETATM   38  H   UNK     0      50.450  16.830  40.067  0.00  0.00     0.167 HD
ENDBRANCH  35  37
ENDBRANCH  34  35
ENDBRANCH  33  34
ENDBRANCH   6  33
BRANCH  27  39
HETATM   39  C   UNK     0      46.035  20.022  29.843  0.00  0.00     0.051 C 
BRANCH  39  40
HETATM   40  C   UNK     0      45.085  21.131  29.762  0.00  0.00     0.114 C 
BRANCH  40  41
HETATM   41  C   UNK     0      43.666  20.948  29.974  0.00  0.00     0.139 C 
HETATM   42  O   UNK     0      43.001  20.063  29.420  0.00  0.00    -0.650 OA
BRANCH  41  43
HETATM   43  O   UNK     0      42.982  21.823  30.866  0.00  0.00    -0.776 OA
HETATM   44  H   UNK     0      43.542  22.596  31.205  0.00  0.00     0.167 HD
ENDBRANCH  41  43
ENDBRANCH  40  41
ENDBRANCH  39  40
ENDBRANCH  27  39
BRANCH  11  45
HETATM   45  C   UNK     0      47.013  10.325  33.060  0.00  0.00     0.051 C 
BRANCH  45  46
HETATM   46  C   UNK     0      47.980   9.226  32.809  0.00  0.00     0.114 C 
BRANCH  46  47
HETATM   47  C   UNK     0      47.950   8.330  34.000  0.00  0.00     0.139 C 
HETATM   48  O   UNK     0      49.018   7.861  34.416  0.00  0.00    -0.650 OA
BRANCH  47  49
HETATM   49  O   UNK     0      46.765   8.030  34.624  0.00  0.00    -0.776 OA
HETATM   50  H   UNK     0      46.733   7.618  35.564  0.00  0.00     0.167 HD
ENDBRANCH  47  49
ENDBRANCH  46  47
ENDBRANCH  45  46
ENDBRANCH  11  45
BRANCH  18  51
HETATM   51  C   UNK     0      42.944  14.759  29.519  0.00  0.00     0.051 C 
BRANCH  51  52
HETATM   52  C   UNK     0      42.972  14.695  27.999  0.00  0.00     0.114 C 
BRANCH  52  53
HETATM   53  C   UNK     0      42.163  15.769  27.389  0.00  0.00     0.139 C 
HETATM   54  O   UNK     0      42.235  16.927  27.829  0.00  0.00    -0.650 OA
BRANCH  53  55
HETATM   55  O   UNK     0      41.331  15.478  26.336  0.00  0.00    -0.776 OA
HETATM   56  H   UNK     0      40.817  16.136  25.799  0.00  0.00     0.167 HD
ENDBRANCH  53  55
ENDBRANCH  52  53
ENDBRANCH  51  52
ENDBRANCH  18  51
TORSDOF 16
ENDMDL
MODEL 18
REMARK VINA RESULT:      -8.9     31.449     34.479
REMARK  16 active torsions:
REMARK  status: ('A' for Active; 'I' for Inactive)
REMARK    1  A    between atoms: C_6  and  C_7 
REMARK    2  A    between atoms: C_7  and  C_8 
REMARK    3  A    between atoms: C_8  and  C_9 
REMARK    4  A    between atoms: C_9  and  O_11 
REMARK    5  A    between atoms: C_16  and  C_17 
REMARK    6  A    between atoms: C_17  and  C_18 
REMARK    7  A    between atoms: C_18  and  C_19 
REMARK    8  A    between atoms: C_19  and  O_21 
REMARK    9  A    between atoms: C_28  and  C_29 
REMARK   10  A    between atoms: C_29  and  C_30 
REMARK   11  A    between atoms: C_30  and  C_31 
REMARK   12  A    between atoms: C_31  and  O_33 
REMARK   13  A    between atoms: C_42  and  C_43 
REMARK   14  A    between atoms: C_43  and  C_44 
REMARK   15  A    between atoms: C_44  and  C_45 
REMARK   16  A    between atoms: C_45  and  O_47 
ROOT
HETATM    1  C   UNK     0      43.241  18.707  29.552  0.00  0.00     0.051 C 
HETATM    2  C   UNK     0      44.089  17.488  29.854  0.00  0.00    -0.031 A 
HETATM    3  C   UNK     0      45.453  17.399  30.083  0.00  0.00     0.021 A 
HETATM    4  N   UNK     0      45.784  16.101  30.281  0.00  0.00    -0.361 N 
HETATM    5  C   UNK     0      44.659  15.361  30.191  0.00  0.00     0.022 A 
HETATM    6  C   UNK     0      43.580  16.197  29.922  0.00  0.00    -0.027 A 
HETATM    7  C   UNK     0      44.463  13.895  30.420  0.00  0.00     0.115 C 
HETATM    8  C   UNK     0      45.179  13.290  31.615  0.00  0.00     0.021 A 
HETATM    9  N   UNK     0      45.415  13.843  32.815  0.00  0.00    -0.361 N 
HETATM   10  C   UNK     0      46.163  12.979  33.534  0.00  0.00     0.022 A 
HETATM   11  C   UNK     0      46.407  11.835  32.780  0.00  0.00    -0.027 A 
HETATM   12  C   UNK     0      45.789  12.024  31.570  0.00  0.00    -0.031 A 
HETATM   13  C   UNK     0      45.783  11.034  30.427  0.00  0.00     0.051 C 
HETATM   14  C   UNK     0      46.720  13.218  34.935  0.00  0.00     0.115 C 
HETATM   15  C   UNK     0      47.666  14.404  35.027  0.00  0.00     0.021 A 
HETATM   16  N   UNK     0      47.406  15.688  34.719  0.00  0.00    -0.361 N 
HETATM   17  C   UNK     0      48.519  16.409  34.869  0.00  0.00     0.022 A 
HETATM   18  C   UNK     0      49.552  15.555  35.304  0.00  0.00    -0.027 A 
HETATM   19  C   UNK     0      49.005  14.302  35.400  0.00  0.00    -0.031 A 
HETATM   20  C   UNK     0      49.771  13.081  35.874  0.00  0.00     0.051 C 
HETATM   21  C   UNK     0      48.775  17.872  34.586  0.00  0.00     0.115 C 
HETATM   22  C   UNK     0      48.036  18.498  33.426  0.00  0.00     0.022 A 
HETATM   23  N   UNK     0      47.782  17.970  32.222  0.00  0.00    -0.361 N 
HETATM   24  C   UNK     0      46.972  18.814  31.552  0.00  0.00     0.021 A 
HETATM   25  C   UNK     0      46.705  19.917  32.340  0.00  0.00    -0.031 A 
HETATM   26  C   UNK     0      45.883  21.146  32.013  0.00  0.00     0.051 C 
HETATM   27  C   UNK     0      47.376  19.738  33.545  0.00  0.00    -0.027 A 
HETATM   28  C   UNK     0      46.340  18.608  30.186  0.00  0.00     0.115 C 
HETATM   29  H   UNK     0      46.816  15.712  30.443  0.00  0.00     0.165 HD
HETATM   30  H   UNK     0      45.014  14.821  33.176  0.00  0.00     0.165 HD
HETATM   31  H   UNK     0      46.404  16.104  34.436  0.00  0.00     0.165 HD
HETATM   32  H   UNK     0      48.209  17.016  31.816  0.00  0.00     0.165 HD
ENDROOT
BRANCH   6  33
HETATM   33  C   UNK     0      42.123  15.866  29.724  0.00  0.00     0.051 C 
BRANCH  33  34
HETATM   34  C   UNK     0      41.959  14.748  28.723  0.00  0.00     0.114 C 
BRANCH  34  35
HETATM   35  C   UNK     0      42.042  15.351  27.362  0.00  0.00     0.139 C 
HETATM   36  O   UNK     0      41.025  15.900  26.845  0.00  0.00    -0.650 OA
BRANCH  35  37
HETATM   37  O   UNK     0      43.211  15.346  26.610  0.00  0.00    -0.776 OA
HETATM   38  H   UNK     0      44.040  15.835  26.908  0.00  0.00     0.167 HD
ENDBRANCH  35  37
ENDBRANCH  34  35
ENDBRANCH  33  34
ENDBRANCH   6  33
BRANCH  27  39
HETATM   39  C   UNK     0      47.384  20.759  34.628  0.00  0.00     0.051 C 
BRANCH  39  40
HETATM   40  C   UNK     0      46.810  20.400  35.924  0.00  0.00     0.114 C 
BRANCH  40  41
HETATM   41  C   UNK     0      47.600  20.372  37.135  0.00  0.00     0.139 C 
HETATM   42  O   UNK     0      48.838  20.347  37.143  0.00  0.00    -0.650 OA
BRANCH  41  43
HETATM   43  O   UNK     0      46.935  20.371  38.394  0.00  0.00    -0.776 OA
HETATM   44  H   UNK     0      47.267  21.074  39.043  0.00  0.00     0.167 HD
ENDBRANCH  41  43
ENDBRANCH  40  41
ENDBRANCH  39  40
ENDBRANCH  27  39
BRANCH  11  45
HETATM   45  C   UNK     0      47.182  10.602  33.162  0.00  0.00     0.051 C 
BRANCH  45  46
HETATM   46  C   UNK     0      47.228  10.344  34.624  0.00  0.00     0.114 C 
BRANCH  46  47
HETATM   47  C   UNK     0      47.681   8.936  34.809  0.00  0.00     0.139 C 
HETATM   48  O   UNK     0      48.876   8.726  35.061  0.00  0.00    -0.650 OA
BRANCH  47  49
HETATM   49  O   UNK     0      46.795   7.894  34.704  0.00  0.00    -0.776 OA
HETATM   50  H   UNK     0      46.419   7.412  35.529  0.00  0.00     0.167 HD
ENDBRANCH  47  49
ENDBRANCH  46  47
ENDBRANCH  45  46
ENDBRANCH  11  45
BRANCH  18  51
HETATM   51  C   UNK     0      50.978  15.918  35.631  0.00  0.00     0.051 C 
BRANCH  51  52
HETATM   52  C   UNK     0      50.944  16.591  36.995  0.00  0.00     0.114 C 
BRANCH  52  53
HETATM   53  C   UNK     0      51.266  15.647  38.082  0.00  0.00     0.139 C 
HETATM   54  O   UNK     0      52.159  14.799  37.925  0.00  0.00    -0.650 OA
BRANCH  53  55
HETATM   55  O   UNK     0      50.572  15.711  39.266  0.00  0.00    -0.776 OA
HETATM   56  H   UNK     0      50.607  15.044  40.000  0.00  0.00     0.167 HD
ENDBRANCH  53  55
ENDBRANCH  52  53
ENDBRANCH  51  52
ENDBRANCH  18  51
TORSDOF 16
ENDMDL
MODEL 19
REMARK VINA RESULT:      -8.9     32.020     34.535
REMARK  16 active torsions:
REMARK  status: ('A' for Active; 'I' for Inactive)
REMARK    1  A    between atoms: C_6  and  C_7 
REMARK    2  A    between atoms: C_7  and  C_8 
REMARK    3  A    between atoms: C_8  and  C_9 
REMARK    4  A    between atoms: C_9  and  O_11 
REMARK    5  A    between atoms: C_16  and  C_17 
REMARK    6  A    between atoms: C_17  and  C_18 
REMARK    7  A    between atoms: C_18  and  C_19 
REMARK    8  A    between atoms: C_19  and  O_21 
REMARK    9  A    between atoms: C_28  and  C_29 
REMARK   10  A    between atoms: C_29  and  C_30 
REMARK   11  A    between atoms: C_30  and  C_31 
REMARK   12  A    between atoms: C_31  and  O_33 
REMARK   13  A    between atoms: C_42  and  C_43 
REMARK   14  A    between atoms: C_43  and  C_44 
REMARK   15  A    between atoms: C_44  and  C_45 
REMARK   16  A    between atoms: C_45  and  O_47 
ROOT
HETATM    1  C   UNK     0      43.170  13.803  30.948  0.00  0.00     0.051 C 
HETATM    2  C   UNK     0      43.501  15.264  31.178  0.00  0.00    -0.031 A 
HETATM    3  C   UNK     0      43.941  15.896  32.330  0.00  0.00     0.021 A 
HETATM    4  N   UNK     0      44.079  17.220  32.083  0.00  0.00    -0.361 N 
HETATM    5  C   UNK     0      43.744  17.444  30.795  0.00  0.00     0.022 A 
HETATM    6  C   UNK     0      43.375  16.242  30.200  0.00  0.00    -0.027 A 
HETATM    7  C   UNK     0      43.813  18.711  30.001  0.00  0.00     0.115 C 
HETATM    8  C   UNK     0      45.053  19.567  30.189  0.00  0.00     0.021 A 
HETATM    9  N   UNK     0      46.318  19.172  30.399  0.00  0.00    -0.361 N 
HETATM   10  C   UNK     0      47.074  20.272  30.602  0.00  0.00     0.022 A 
HETATM   11  C   UNK     0      46.275  21.408  30.511  0.00  0.00    -0.027 A 
HETATM   12  C   UNK     0      45.001  20.971  30.250  0.00  0.00    -0.031 A 
HETATM   13  C   UNK     0      43.792  21.861  30.065  0.00  0.00     0.051 C 
HETATM   14  C   UNK     0      48.561  20.295  30.941  0.00  0.00     0.115 C 
HETATM   15  C   UNK     0      48.907  19.590  32.243  0.00  0.00     0.021 A 
HETATM   16  N   UNK     0      48.671  18.305  32.569  0.00  0.00    -0.361 N 
HETATM   17  C   UNK     0      49.061  18.094  33.828  0.00  0.00     0.022 A 
HETATM   18  C   UNK     0      49.584  19.296  34.344  0.00  0.00    -0.027 A 
HETATM   19  C   UNK     0      49.483  20.225  33.341  0.00  0.00    -0.031 A 
HETATM   20  C   UNK     0      49.970  21.657  33.465  0.00  0.00     0.051 C 
HETATM   21  C   UNK     0      48.948  16.853  34.685  0.00  0.00     0.115 C 
HETATM   22  C   UNK     0      47.742  15.969  34.477  0.00  0.00     0.022 A 
HETATM   23  N   UNK     0      46.471  16.335  34.262  0.00  0.00    -0.361 N 
HETATM   24  C   UNK     0      45.752  15.228  33.986  0.00  0.00     0.021 A 
HETATM   25  C   UNK     0      46.578  14.121  34.034  0.00  0.00    -0.031 A 
HETATM   26  C   UNK     0      46.227  12.661  33.836  0.00  0.00     0.051 C 
HETATM   27  C   UNK     0      47.856  14.570  34.347  0.00  0.00    -0.027 A 
HETATM   28  C   UNK     0      44.290  15.146  33.585  0.00  0.00     0.115 C 
HETATM   29  H   UNK     0      44.373  17.993  32.830  0.00  0.00     0.165 HD
HETATM   30  H   UNK     0      46.691  18.119  30.355  0.00  0.00     0.165 HD
HETATM   31  H   UNK     0      48.265  17.518  31.882  0.00  0.00     0.165 HD
HETATM   32  H   UNK     0      46.061  17.375  34.346  0.00  0.00     0.165 HD
ENDROOT
BRANCH   6  33
HETATM   33  C   UNK     0      42.916  15.957  28.793  0.00  0.00     0.051 C 
BRANCH  33  34
HETATM   34  C   UNK     0      41.408  15.986  28.706  0.00  0.00     0.114 C 
BRANCH  34  35
HETATM   35  C   UNK     0      41.033  15.582  27.321  0.00  0.00     0.139 C 
HETATM   36  O   UNK     0      39.815  15.462  27.000  0.00  0.00    -0.650 OA
BRANCH  35  37
HETATM   37  O   UNK     0      41.977  15.326  26.333  0.00  0.00    -0.776 OA
HETATM   38  H   UNK     0      41.793  15.503  25.359  0.00  0.00     0.167 HD
ENDBRANCH  35  37
ENDBRANCH  34  35
ENDBRANCH  33  34
ENDBRANCH   6  33
BRANCH  27  39
HETATM   39  C   UNK     0      49.008  13.652  34.557  0.00  0.00     0.051 C 
BRANCH  39  40
HETATM   40  C   UNK     0      49.430  13.370  35.929  0.00  0.00     0.114 C 
BRANCH  40  41
HETATM   41  C   UNK     0      48.770  12.381  36.751  0.00  0.00     0.139 C 
HETATM   42  O   UNK     0      49.251  11.266  36.997  0.00  0.00    -0.650 OA
BRANCH  41  43
HETATM   43  O   UNK     0      47.498  12.687  37.314  0.00  0.00    -0.776 OA
HETATM   44  H   UNK     0      47.520  13.397  38.036  0.00  0.00     0.167 HD
ENDBRANCH  41  43
ENDBRANCH  40  41
ENDBRANCH  39  40
ENDBRANCH  27  39
BRANCH  11  45
HETATM   45  C   UNK     0      46.671  22.853  30.655  0.00  0.00     0.051 C 
BRANCH  45  46
HETATM   46  C   UNK     0      46.701  23.335  32.060  0.00  0.00     0.114 C 
BRANCH  46  47
HETATM   47  C   UNK     0      45.577  24.302  32.218  0.00  0.00     0.139 C 
HETATM   48  O   UNK     0      44.855  24.213  33.221  0.00  0.00    -0.650 OA
BRANCH  47  49
HETATM   49  O   UNK     0      45.344  25.270  31.273  0.00  0.00    -0.776 OA
HETATM   50  H   UNK     0      44.510  25.257  30.674  0.00  0.00     0.167 HD
ENDBRANCH  47  49
ENDBRANCH  46  47
ENDBRANCH  45  46
ENDBRANCH  11  45
BRANCH  18  51
HETATM   51  C   UNK     0      50.169  19.541  35.711  0.00  0.00     0.051 C 
BRANCH  51  52
HETATM   52  C   UNK     0      49.046  20.125  36.556  0.00  0.00     0.114 C 
BRANCH  52  53
HETATM   53  C   UNK     0      49.241  19.853  37.993  0.00  0.00     0.139 C 
HETATM   54  O   UNK     0      48.634  20.527  38.841  0.00  0.00    -0.650 OA
BRANCH  53  55
HETATM   55  O   UNK     0      50.099  18.855  38.385  0.00  0.00    -0.776 OA
HETATM   56  H   UNK     0      49.973  18.247  39.160  0.00  0.00     0.167 HD
ENDBRANCH  53  55
ENDBRANCH  52  53
ENDBRANCH  51  52
ENDBRANCH  18  51
TORSDOF 16
ENDMDL
MODEL 20
REMARK VINA RESULT:      -8.8     33.473     36.353
REMARK  16 active torsions:
REMARK  status: ('A' for Active; 'I' for Inactive)
REMARK    1  A    between atoms: C_6  and  C_7 
REMARK    2  A    between atoms: C_7  and  C_8 
REMARK    3  A    between atoms: C_8  and  C_9 
REMARK    4  A    between atoms: C_9  and  O_11 
REMARK    5  A    between atoms: C_16  and  C_17 
REMARK    6  A    between atoms: C_17  and  C_18 
REMARK    7  A    between atoms: C_18  and  C_19 
REMARK    8  A    between atoms: C_19  and  O_21 
REMARK    9  A    between atoms: C_28  and  C_29 
REMARK   10  A    between atoms: C_29  and  C_30 
REMARK   11  A    between atoms: C_30  and  C_31 
REMARK   12  A    between atoms: C_31  and  O_33 
REMARK   13  A    between atoms: C_42  and  C_43 
REMARK   14  A    between atoms: C_43  and  C_44 
REMARK   15  A    between atoms: C_44  and  C_45 
REMARK   16  A    between atoms: C_45  and  O_47 
ROOT
HETATM    1  C   UNK     0      42.540  22.795  30.864  0.00  0.00     0.051 C 
HETATM    2  C   UNK     0      42.893  21.349  30.580  0.00  0.00    -0.031 A 
HETATM    3  C   UNK     0      44.069  20.812  30.082  0.00  0.00     0.021 A 
HETATM    4  N   UNK     0      43.926  19.471  29.961  0.00  0.00    -0.361 N 
HETATM    5  C   UNK     0      42.687  19.140  30.380  0.00  0.00     0.022 A 
HETATM    6  C   UNK     0      42.012  20.292  30.772  0.00  0.00    -0.027 A 
HETATM    7  C   UNK     0      42.063  17.788  30.536  0.00  0.00     0.115 C 
HETATM    8  C   UNK     0      42.934  16.703  31.145  0.00  0.00     0.021 A 
HETATM    9  N   UNK     0      43.860  16.817  32.109  0.00  0.00    -0.361 N 
HETATM   10  C   UNK     0      44.450  15.613  32.267  0.00  0.00     0.022 A 
HETATM   11  C   UNK     0      43.881  14.696  31.388  0.00  0.00    -0.027 A 
HETATM   12  C   UNK     0      42.925  15.376  30.678  0.00  0.00    -0.031 A 
HETATM   13  C   UNK     0      42.042  14.778  29.606  0.00  0.00     0.051 C 
HETATM   14  C   UNK     0      45.605  15.292  33.212  0.00  0.00     0.115 C 
HETATM   15  C   UNK     0      46.871  16.083  32.928  0.00  0.00     0.021 A 
HETATM   16  N   UNK     0      47.019  17.421  32.917  0.00  0.00    -0.361 N 
HETATM   17  C   UNK     0      48.268  17.721  32.553  0.00  0.00     0.022 A 
HETATM   18  C   UNK     0      48.970  16.521  32.326  0.00  0.00    -0.027 A 
HETATM   19  C   UNK     0      48.085  15.503  32.565  0.00  0.00    -0.031 A 
HETATM   20  C   UNK     0      48.445  14.031  32.470  0.00  0.00     0.051 C 
HETATM   21  C   UNK     0      48.915  19.068  32.320  0.00  0.00     0.115 C 
HETATM   22  C   UNK     0      48.049  20.170  31.756  0.00  0.00     0.022 A 
HETATM   23  N   UNK     0      47.116  20.085  30.800  0.00  0.00    -0.361 N 
HETATM   24  C   UNK     0      46.489  21.275  30.713  0.00  0.00     0.021 A 
HETATM   25  C   UNK     0      47.038  22.151  31.629  0.00  0.00    -0.031 A 
HETATM   26  C   UNK     0      46.699  23.606  31.879  0.00  0.00     0.051 C 
HETATM   27  C   UNK     0      48.039  21.467  32.309  0.00  0.00    -0.027 A 
HETATM   28  C   UNK     0      45.301  21.638  29.839  0.00  0.00     0.115 C 
HETATM   29  H   UNK     0      44.687  18.772  29.544  0.00  0.00     0.165 HD
HETATM   30  H   UNK     0      44.067  17.733  32.714  0.00  0.00     0.165 HD
HETATM   31  H   UNK     0      46.240  18.169  33.218  0.00  0.00     0.165 HD
HETATM   32  H   UNK     0      46.920  19.195  30.146  0.00  0.00     0.165 HD
ENDROOT
BRANCH   6  33
HETATM   33  C   UNK     0      40.612  20.462  31.305  0.00  0.00     0.051 C 
BRANCH  33  34
HETATM   34  C   UNK     0      39.689  20.981  30.228  0.00  0.00     0.114 C 
BRANCH  34  35
HETATM   35  C   UNK     0      39.294  19.818  29.382  0.00  0.00     0.139 C 
HETATM   36  O   UNK     0      38.463  18.967  29.815  0.00  0.00    -0.650 OA
BRANCH  35  37
HETATM   37  O   UNK     0      39.801  19.615  28.104  0.00  0.00    -0.776 OA
HETATM   38  H   UNK     0      40.327  20.323  27.619  0.00  0.00     0.167 HD
ENDBRANCH  35  37
ENDBRANCH  34  35
ENDBRANCH  33  34
ENDBRANCH   6  33
BRANCH  27  39
HETATM   39  C   UNK     0      48.910  22.109  33.331  0.00  0.00     0.051 C 
BRANCH  39  40
HETATM   40  C   UNK     0      50.088  22.846  32.876  0.00  0.00     0.114 C 
BRANCH  40  41
HETATM   41  C   UNK     0      51.304  22.178  32.468  0.00  0.00     0.139 C 
HETATM   42  O   UNK     0      51.429  21.587  31.387  0.00  0.00    -0.650 OA
BRANCH  41  43
HETATM   43  O   UNK     0      52.427  22.193  33.342  0.00  0.00    -0.776 OA
HETATM   44  H   UNK     0      52.805  21.277  33.554  0.00  0.00     0.167 HD
ENDBRANCH  41  43
ENDBRANCH  40  41
ENDBRANCH  39  40
ENDBRANCH  27  39
BRANCH  11  45
HETATM   45  C   UNK     0      44.205  13.237  31.209  0.00  0.00     0.051 C 
BRANCH  45  46
HETATM   46  C   UNK     0      45.388  12.981  30.348  0.00  0.00     0.114 C 
BRANCH  46  47
HETATM   47  C   UNK     0      46.023  11.722  30.834  0.00  0.00     0.139 C 
HETATM   48  O   UNK     0      47.123  11.396  30.367  0.00  0.00    -0.650 OA
BRANCH  47  49
HETATM   49  O   UNK     0      45.403  10.941  31.776  0.00  0.00    -0.776 OA
HETATM   50  H   UNK     0      45.545   9.925  31.820  0.00  0.00     0.167 HD
ENDBRANCH  47  49
ENDBRANCH  46  47
ENDBRANCH  45  46
ENDBRANCH  11  45
BRANCH  18  51
HETATM   51  C   UNK     0      50.412  16.354  31.923  0.00  0.00     0.051 C 
BRANCH  51  52
HETATM   52  C   UNK     0      50.403  15.995  30.444  0.00  0.00     0.114 C 
BRANCH  52  53
HETATM   53  C   UNK     0      50.036  17.149  29.601  0.00  0.00     0.139 C 
HETATM   54  O   UNK     0      48.984  17.128  28.943  0.00  0.00    -0.650 OA
BRANCH  53  55
HETATM   55  O   UNK     0      50.866  18.243  29.547  0.00  0.00    -0.776 OA
HETATM   56  H   UNK     0      51.063  18.787  28.741  0.00  0.00     0.167 HD
ENDBRANCH  53  55
ENDBRANCH  52  53
ENDBRANCH  51  52
ENDBRANCH  18  51
TORSDOF 16
ENDMDL
