MODEL 1
REMARK VINA RESULT:      -9.1      0.000      0.000
REMARK  28 active torsions:
REMARK  status: ('A' for Active; 'I' for Inactive)
REMARK    1  A    between atoms: C_2  and  O_3 
REMARK    2  A    between atoms: C_2  and  C_4 
REMARK    3  A    between atoms: C_4  and  C_5 
REMARK    4  A    between atoms: C_5  and  C_6 
REMARK    5  A    between atoms: C_7  and  C_8 
REMARK    6  A    between atoms: C_8  and  C_9 
REMARK    7  A    between atoms: C_9  and  O_11 
REMARK    8  A    between atoms: C_28  and  C_29 
REMARK    9  A    between atoms: C_29  and  C_30 
REMARK   10  A    between atoms: C_30  and  O_32 
REMARK   11  A    between atoms: C_33  and  C_34 
REMARK   12  A    between atoms: C_34  and  C_35 
REMARK   13  A    between atoms: C_35  and  C_36 
REMARK   14  A    between atoms: C_36  and  O_38 
REMARK   15  A    between atoms: C_39  and  C_40 
REMARK   16  A    between atoms: C_40  and  C_41 
REMARK   17  A    between atoms: C_41  and  C_42 
REMARK   18  A    between atoms: C_42  and  O_44 
REMARK   19  A    between atoms: C_45  and  C_46 
REMARK   20  A    between atoms: C_46  and  C_47 
REMARK   21  A    between atoms: C_47  and  O_49 
REMARK   22  A    between atoms: C_50  and  C_51 
REMARK   23  A    between atoms: C_51  and  C_52 
REMARK   24  A    between atoms: C_52  and  O_54 
REMARK   25  A    between atoms: C_55  and  C_56 
REMARK   26  A    between atoms: C_56  and  C_57 
REMARK   27  A    between atoms: C_57  and  C_58 
REMARK   28  A    between atoms: C_58  and  O_60 
ROOT
ATOM      1  O   UNK d   0      17.847  14.124 -13.855  0.00  0.00    -0.650 OA
ATOM      2  C   UNK d   0      17.856  14.528 -12.671  0.00  0.00     0.139 C 
ENDROOT
BRANCH   2   3
ATOM      3  O   UNK d   0      17.927  15.877 -12.420  0.00  0.00    -0.776 OA
ATOM      4  H   UNK d   0      18.795  16.309 -12.099  0.00  0.00     0.167 HD
ENDBRANCH   2   3
BRANCH   2   5
ATOM      5  C   UNK d   0      17.791  13.552 -11.547  0.00  0.00     0.115 C 
BRANCH   5   6
ATOM      6  C   UNK d   0      16.418  12.942 -11.469  0.00  0.00     0.052 C 
BRANCH   6   7
ATOM      7  C   UNK d   0      16.457  11.447 -11.259  0.00  0.00    -0.020 A 
ATOM      8  C   UNK d   0      16.908  10.537 -12.084  0.00  0.00    -0.011 A 
ATOM      9  C   UNK d   0      16.730   9.239 -11.454  0.00  0.00     0.067 A 
ATOM     10  C   UNK d   0      17.016   7.905 -11.785  0.00  0.00     0.062 C 
ATOM     11  N   UNK d   0      16.159   9.453 -10.250  0.00  0.00    -0.248 NA
ATOM     12  C   UNK d   0      17.025   6.802 -10.924  0.00  0.00     0.041 A 
ATOM     13  N   UNK d   0      16.178   6.435  -9.944  0.00  0.00    -0.355 N 
ATOM     14  C   UNK d   0      18.099   5.896 -10.992  0.00  0.00    -0.022 A 
ATOM     15  C   UNK d   0      16.691   5.324  -9.382  0.00  0.00     0.042 A 
ATOM     16  H   UNK d   0      15.226   6.941  -9.667  0.00  0.00     0.166 HD
ATOM     17  C   UNK d   0      16.209   4.532  -8.321  0.00  0.00     0.062 C 
ATOM     18  C   UNK d   0      17.895   4.956 -10.012  0.00  0.00    -0.013 A 
ATOM     19  C   UNK d   0      15.696   4.928  -7.112  0.00  0.00     0.067 A 
ATOM     20  N   UNK d   0      15.422   6.227  -6.969  0.00  0.00    -0.248 NA
ATOM     21  C   UNK d   0      15.360   4.279  -5.856  0.00  0.00    -0.011 A 
ATOM     22  C   UNK d   0      14.933   6.475  -5.709  0.00  0.00     0.066 A 
ATOM     23  C   UNK d   0      14.569   7.785  -5.435  0.00  0.00     0.062 C 
ATOM     24  C   UNK d   0      14.918   5.190  -5.038  0.00  0.00    -0.020 A 
ATOM     25  C   UNK d   0      14.555   8.876  -6.318  0.00  0.00     0.041 A 
ATOM     26  N   UNK d   0      15.405   9.249  -7.282  0.00  0.00    -0.355 N 
ATOM     27  C   UNK d   0      13.475   9.783  -6.253  0.00  0.00    -0.022 A 
ATOM     28  C   UNK d   0      14.901  10.362  -7.838  0.00  0.00     0.042 A 
ATOM     29  H   UNK d   0      16.366   8.746  -7.552  0.00  0.00     0.166 HD
ATOM     30  C   UNK d   0      15.373  11.165  -8.888  0.00  0.00     0.062 C 
ATOM     31  C   UNK d   0      13.685  10.726  -7.212  0.00  0.00    -0.013 A 
ATOM     32  C   UNK d   0      15.969  10.761 -10.072  0.00  0.00     0.066 A 
BRANCH   8  33
ATOM     33  C   UNK d   0      17.490  10.763 -13.419  0.00  0.00     0.151 C 
BRANCH  33  34
ATOM     34  C   UNK d   0      18.960  10.656 -13.427  0.00  0.00     0.143 C 
ATOM     35  O   UNK d   0      19.518   9.550 -13.452  0.00  0.00    -0.650 OA
BRANCH  34  36
ATOM     36  O   UNK d   0      19.721  11.802 -13.403  0.00  0.00    -0.776 OA
ATOM     37  H   UNK d   0      20.727  11.780 -13.617  0.00  0.00     0.167 HD
ENDBRANCH  34  36
ENDBRANCH  33  34
ENDBRANCH   8  33
BRANCH  31  38
ATOM     38  C   UNK d   0      12.781  11.895  -7.526  0.00  0.00     0.151 C 
BRANCH  38  39
ATOM     39  C   UNK d   0      11.547  11.494  -8.168  0.00  0.00     0.143 C 
ATOM     40  O   UNK d   0      11.497  10.561  -8.988  0.00  0.00    -0.650 OA
BRANCH  39  41
ATOM     41  O   UNK d   0      10.365  12.170  -7.865  0.00  0.00    -0.776 OA
ATOM     42  H   UNK d   0      10.249  12.485  -6.897  0.00  0.00     0.167 HD
ENDBRANCH  39  41
ENDBRANCH  38  39
ENDBRANCH  31  38
BRANCH  27  43
ATOM     43  C   UNK d   0      12.280   9.786  -5.332  0.00  0.00     0.052 C 
BRANCH  43  44
ATOM     44  C   UNK d   0      12.636  10.045  -3.904  0.00  0.00     0.115 C 
BRANCH  44  45
ATOM     45  C   UNK d   0      11.528   9.490  -3.083  0.00  0.00     0.139 C 
ATOM     46  O   UNK d   0      11.822   8.725  -2.132  0.00  0.00    -0.650 OA
BRANCH  45  47
ATOM     47  O   UNK d   0      10.203   9.784  -3.320  0.00  0.00    -0.776 OA
ATOM     48  H   UNK d   0       9.900  10.616  -3.852  0.00  0.00     0.167 HD
ENDBRANCH  45  47
ENDBRANCH  44  45
ENDBRANCH  43  44
ENDBRANCH  27  43
BRANCH  24  49
ATOM     49  C   UNK d   0      14.429   4.962  -3.667  0.00  0.00     0.052 C 
BRANCH  49  50
ATOM     50  C   UNK d   0      13.098   5.639  -3.466  0.00  0.00     0.115 C 
BRANCH  50  51
ATOM     51  C   UNK d   0      12.002   4.817  -2.970  0.00  0.00     0.139 C 
ATOM     52  O   UNK d   0      10.878   5.291  -2.682  0.00  0.00    -0.650 OA
BRANCH  51  53
ATOM     53  O   UNK d   0      12.189   3.454  -2.801  0.00  0.00    -0.776 OA
ATOM     54  H   UNK d   0      12.718   2.957  -3.496  0.00  0.00     0.167 HD
ENDBRANCH  51  53
ENDBRANCH  50  51
ENDBRANCH  49  50
ENDBRANCH  24  49
BRANCH  21  55
ATOM     55  C   UNK d   0      15.512   2.815  -5.607  0.00  0.00     0.151 C 
BRANCH  55  56
ATOM     56  C   UNK d   0      16.489   2.198  -6.518  0.00  0.00     0.143 C 
ATOM     57  O   UNK d   0      17.720   2.343  -6.386  0.00  0.00    -0.650 OA
BRANCH  56  58
ATOM     58  O   UNK d   0      15.998   1.422  -7.567  0.00  0.00    -0.776 OA
ATOM     59  H   UNK d   0      15.227   0.779  -7.310  0.00  0.00     0.167 HD
ENDBRANCH  56  58
ENDBRANCH  55  56
ENDBRANCH  21  55
BRANCH  18  60
ATOM     60  C   UNK d   0      18.814   3.795  -9.723  0.00  0.00     0.151 C 
BRANCH  60  61
ATOM     61  C   UNK d   0      18.273   2.654 -10.476  0.00  0.00     0.143 C 
ATOM     62  O   UNK d   0      17.402   1.866 -10.105  0.00  0.00    -0.650 OA
BRANCH  61  63
ATOM     63  O   UNK d   0      18.830   2.462 -11.763  0.00  0.00    -0.776 OA
ATOM     64  H   UNK d   0      18.686   1.606 -12.268  0.00  0.00     0.167 HD
ENDBRANCH  61  63
ENDBRANCH  60  61
ENDBRANCH  18  60
BRANCH  14  65
ATOM     65  C   UNK d   0      19.239   5.796 -11.965  0.00  0.00     0.052 C 
BRANCH  65  66
ATOM     66  C   UNK d   0      20.366   6.709 -11.636  0.00  0.00     0.115 C 
BRANCH  66  67
ATOM     67  C   UNK d   0      21.537   6.189 -10.988  0.00  0.00     0.139 C 
ATOM     68  O   UNK d   0      22.362   7.018 -10.454  0.00  0.00    -0.650 OA
BRANCH  67  69
ATOM     69  O   UNK d   0      21.916   4.854 -10.854  0.00  0.00    -0.776 OA
ATOM     70  H   UNK d   0      22.777   4.581 -11.349  0.00  0.00     0.167 HD
ENDBRANCH  67  69
ENDBRANCH  66  67
ENDBRANCH  65  66
ENDBRANCH  14  65
ENDBRANCH   6   7
ENDBRANCH   5   6
ENDBRANCH   2   5
TORSDOF 28
ENDMDL
MODEL 2
REMARK VINA RESULT:      -8.9      1.691      7.560
REMARK  28 active torsions:
REMARK  status: ('A' for Active; 'I' for Inactive)
REMARK    1  A    between atoms: C_2  and  O_3 
REMARK    2  A    between atoms: C_2  and  C_4 
REMARK    3  A    between atoms: C_4  and  C_5 
REMARK    4  A    between atoms: C_5  and  C_6 
REMARK    5  A    between atoms: C_7  and  C_8 
REMARK    6  A    between atoms: C_8  and  C_9 
REMARK    7  A    between atoms: C_9  and  O_11 
REMARK    8  A    between atoms: C_28  and  C_29 
REMARK    9  A    between atoms: C_29  and  C_30 
REMARK   10  A    between atoms: C_30  and  O_32 
REMARK   11  A    between atoms: C_33  and  C_34 
REMARK   12  A    between atoms: C_34  and  C_35 
REMARK   13  A    between atoms: C_35  and  C_36 
REMARK   14  A    between atoms: C_36  and  O_38 
REMARK   15  A    between atoms: C_39  and  C_40 
REMARK   16  A    between atoms: C_40  and  C_41 
REMARK   17  A    between atoms: C_41  and  C_42 
REMARK   18  A    between atoms: C_42  and  O_44 
REMARK   19  A    between atoms: C_45  and  C_46 
REMARK   20  A    between atoms: C_46  and  C_47 
REMARK   21  A    between atoms: C_47  and  O_49 
REMARK   22  A    between atoms: C_50  and  C_51 
REMARK   23  A    between atoms: C_51  and  C_52 
REMARK   24  A    between atoms: C_52  and  O_54 
REMARK   25  A    between atoms: C_55  and  C_56 
REMARK   26  A    between atoms: C_56  and  C_57 
REMARK   27  A    between atoms: C_57  and  C_58 
REMARK   28  A    between atoms: C_58  and  O_60 
ROOT
ATOM      1  O   UNK d   0      20.427   4.496 -11.542  0.00  0.00    -0.650 OA
ATOM      2  C   UNK d   0      19.554   4.816 -12.380  0.00  0.00     0.139 C 
ENDROOT
BRANCH   2   3
ATOM      3  O   UNK d   0      18.639   3.877 -12.791  0.00  0.00    -0.776 OA
ATOM      4  H   UNK d   0      18.922   3.079 -13.362  0.00  0.00     0.167 HD
ENDBRANCH   2   3
BRANCH   2   5
ATOM      5  C   UNK d   0      19.513   6.203 -12.925  0.00  0.00     0.115 C 
BRANCH   5   6
ATOM      6  C   UNK d   0      18.090   6.609 -13.198  0.00  0.00     0.052 C 
BRANCH   6   7
ATOM      7  C   UNK d   0      17.496   7.431 -12.079  0.00  0.00    -0.020 A 
ATOM      8  C   UNK d   0      17.342   8.730 -12.038  0.00  0.00    -0.011 A 
ATOM      9  C   UNK d   0      16.736   9.066 -10.760  0.00  0.00     0.067 A 
ATOM     10  C   UNK d   0      16.306  10.239 -10.121  0.00  0.00     0.062 C 
ATOM     11  N   UNK d   0      16.561   7.911 -10.084  0.00  0.00    -0.248 NA
ATOM     12  C   UNK d   0      15.484  10.337  -8.993  0.00  0.00     0.041 A 
ATOM     13  N   UNK d   0      15.474   9.639  -7.841  0.00  0.00    -0.355 N 
ATOM     14  C   UNK d   0      14.425  11.262  -9.000  0.00  0.00    -0.022 A 
ATOM     15  C   UNK d   0      14.431  10.093  -7.121  0.00  0.00     0.042 A 
ATOM     16  H   UNK d   0      16.201   8.856  -7.535  0.00  0.00     0.166 HD
ATOM     17  C   UNK d   0      13.967   9.713  -5.846  0.00  0.00     0.062 C 
ATOM     18  C   UNK d   0      13.749  11.111  -7.815  0.00  0.00    -0.013 A 
ATOM     19  C   UNK d   0      13.798   8.453  -5.330  0.00  0.00     0.067 A 
ATOM     20  N   UNK d   0      14.315   7.439  -6.028  0.00  0.00    -0.248 NA
ATOM     21  C   UNK d   0      13.154   7.882  -4.159  0.00  0.00    -0.011 A 
ATOM     22  C   UNK d   0      14.056   6.246  -5.400  0.00  0.00     0.066 A 
ATOM     23  C   UNK d   0      14.572   5.108  -6.001  0.00  0.00     0.062 C 
ATOM     24  C   UNK d   0      13.305   6.589  -4.208  0.00  0.00    -0.020 A 
ATOM     25  C   UNK d   0      15.406   5.032  -7.127  0.00  0.00     0.041 A 
ATOM     26  N   UNK d   0      15.407   5.715  -8.278  0.00  0.00    -0.355 N 
ATOM     27  C   UNK d   0      16.471   4.106  -7.117  0.00  0.00    -0.022 A 
ATOM     28  C   UNK d   0      16.441   5.258  -9.002  0.00  0.00     0.042 A 
ATOM     29  H   UNK d   0      14.669   6.495  -8.589  0.00  0.00     0.166 HD
ATOM     30  C   UNK d   0      16.908   5.621 -10.275  0.00  0.00     0.062 C 
ATOM     31  C   UNK d   0      17.132   4.243  -8.299  0.00  0.00    -0.013 A 
ATOM     32  C   UNK d   0      16.997   6.891 -10.823  0.00  0.00     0.066 A 
BRANCH   8  33
ATOM     33  C   UNK d   0      17.715   9.699 -13.085  0.00  0.00     0.151 C 
BRANCH  33  34
ATOM     34  C   UNK d   0      19.046  10.293 -12.865  0.00  0.00     0.143 C 
ATOM     35  O   UNK d   0      19.392  11.320 -13.467  0.00  0.00    -0.650 OA
BRANCH  34  36
ATOM     36  O   UNK d   0      19.913   9.698 -11.979  0.00  0.00    -0.776 OA
ATOM     37  H   UNK d   0      19.785   8.721 -11.681  0.00  0.00     0.167 HD
ENDBRANCH  34  36
ENDBRANCH  33  34
ENDBRANCH   8  33
BRANCH  31  38
ATOM     38  C   UNK d   0      18.354   3.467  -8.733  0.00  0.00     0.151 C 
BRANCH  38  39
ATOM     39  C   UNK d   0      18.037   2.375  -9.630  0.00  0.00     0.143 C 
ATOM     40  O   UNK d   0      16.900   1.877  -9.695  0.00  0.00    -0.650 OA
BRANCH  39  41
ATOM     41  O   UNK d   0      19.033   1.856 -10.456  0.00  0.00    -0.776 OA
ATOM     42  H   UNK d   0      18.922   2.007 -11.464  0.00  0.00     0.167 HD
ENDBRANCH  39  41
ENDBRANCH  38  39
ENDBRANCH  31  38
BRANCH  27  43
ATOM     43  C   UNK d   0      16.873   3.118  -6.050  0.00  0.00     0.052 C 
BRANCH  43  44
ATOM     44  C   UNK d   0      15.994   1.911  -6.003  0.00  0.00     0.115 C 
BRANCH  44  45
ATOM     45  C   UNK d   0      16.823   0.765  -6.459  0.00  0.00     0.139 C 
ATOM     46  O   UNK d   0      16.240  -0.211  -6.995  0.00  0.00    -0.650 OA
BRANCH  45  47
ATOM     47  O   UNK d   0      18.194   0.733  -6.325  0.00  0.00    -0.776 OA
ATOM     48  H   UNK d   0      18.677   0.112  -5.656  0.00  0.00     0.167 HD
ENDBRANCH  45  47
ENDBRANCH  44  45
ENDBRANCH  43  44
ENDBRANCH  27  43
BRANCH  24  49
ATOM     49  C   UNK d   0      12.840   5.622  -3.199  0.00  0.00     0.052 C 
BRANCH  49  50
ATOM     50  C   UNK d   0      11.335   5.621  -3.128  0.00  0.00     0.115 C 
BRANCH  50  51
ATOM     51  C   UNK d   0      10.671   4.325  -3.102  0.00  0.00     0.139 C 
ATOM     52  O   UNK d   0       9.424   4.203  -3.113  0.00  0.00    -0.650 OA
BRANCH  51  53
ATOM     53  O   UNK d   0      11.431   3.165  -3.061  0.00  0.00    -0.776 OA
ATOM     54  H   UNK d   0      11.047   2.331  -3.468  0.00  0.00     0.167 HD
ENDBRANCH  51  53
ENDBRANCH  50  51
ENDBRANCH  49  50
ENDBRANCH  24  49
BRANCH  21  55
ATOM     55  C   UNK d   0      12.460   8.687  -3.111  0.00  0.00     0.151 C 
BRANCH  55  56
ATOM     56  C   UNK d   0      13.161   8.633  -1.819  0.00  0.00     0.143 C 
ATOM     57  O   UNK d   0      12.578   8.395  -0.743  0.00  0.00    -0.650 OA
BRANCH  56  58
ATOM     58  O   UNK d   0      14.537   8.861  -1.817  0.00  0.00    -0.776 OA
ATOM     59  H   UNK d   0      14.974   8.894  -2.756  0.00  0.00     0.167 HD
ENDBRANCH  56  58
ENDBRANCH  55  56
ENDBRANCH  21  55
BRANCH  18  60
ATOM     60  C   UNK d   0      12.532  11.904  -7.407  0.00  0.00     0.151 C 
BRANCH  60  61
ATOM     61  C   UNK d   0      11.416  11.367  -8.201  0.00  0.00     0.143 C 
ATOM     62  O   UNK d   0      10.455  11.993  -8.648  0.00  0.00    -0.650 OA
BRANCH  61  63
ATOM     63  O   UNK d   0      11.478   9.977  -8.465  0.00  0.00    -0.776 OA
ATOM     64  H   UNK d   0      10.723   9.503  -8.927  0.00  0.00     0.167 HD
ENDBRANCH  61  63
ENDBRANCH  60  61
ENDBRANCH  18  60
BRANCH  14  65
ATOM     65  C   UNK d   0      14.066  12.335  -9.989  0.00  0.00     0.052 C 
BRANCH  65  66
ATOM     66  C   UNK d   0      14.911  13.553  -9.858  0.00  0.00     0.115 C 
BRANCH  66  67
ATOM     67  C   UNK d   0      14.798  14.373  -8.685  0.00  0.00     0.139 C 
ATOM     68  O   UNK d   0      13.759  15.119  -8.555  0.00  0.00    -0.650 OA
BRANCH  67  69
ATOM     69  O   UNK d   0      15.700  14.477  -7.626  0.00  0.00    -0.776 OA
ATOM     70  H   UNK d   0      16.162  13.600  -7.345  0.00  0.00     0.167 HD
ENDBRANCH  67  69
ENDBRANCH  66  67
ENDBRANCH  65  66
ENDBRANCH  14  65
ENDBRANCH   6   7
ENDBRANCH   5   6
ENDBRANCH   2   5
TORSDOF 28
ENDMDL
MODEL 3
REMARK VINA RESULT:      -8.9      1.855      3.957
REMARK  28 active torsions:
REMARK  status: ('A' for Active; 'I' for Inactive)
REMARK    1  A    between atoms: C_2  and  O_3 
REMARK    2  A    between atoms: C_2  and  C_4 
REMARK    3  A    between atoms: C_4  and  C_5 
REMARK    4  A    between atoms: C_5  and  C_6 
REMARK    5  A    between atoms: C_7  and  C_8 
REMARK    6  A    between atoms: C_8  and  C_9 
REMARK    7  A    between atoms: C_9  and  O_11 
REMARK    8  A    between atoms: C_28  and  C_29 
REMARK    9  A    between atoms: C_29  and  C_30 
REMARK   10  A    between atoms: C_30  and  O_32 
REMARK   11  A    between atoms: C_33  and  C_34 
REMARK   12  A    between atoms: C_34  and  C_35 
REMARK   13  A    between atoms: C_35  and  C_36 
REMARK   14  A    between atoms: C_36  and  O_38 
REMARK   15  A    between atoms: C_39  and  C_40 
REMARK   16  A    between atoms: C_40  and  C_41 
REMARK   17  A    between atoms: C_41  and  C_42 
REMARK   18  A    between atoms: C_42  and  O_44 
REMARK   19  A    between atoms: C_45  and  C_46 
REMARK   20  A    between atoms: C_46  and  C_47 
REMARK   21  A    between atoms: C_47  and  O_49 
REMARK   22  A    between atoms: C_50  and  C_51 
REMARK   23  A    between atoms: C_51  and  C_52 
REMARK   24  A    between atoms: C_52  and  O_54 
REMARK   25  A    between atoms: C_55  and  C_56 
REMARK   26  A    between atoms: C_56  and  C_57 
REMARK   27  A    between atoms: C_57  and  C_58 
REMARK   28  A    between atoms: C_58  and  O_60 
ROOT
ATOM      1  O   UNK d   0      18.193  13.439 -12.910  0.00  0.00    -0.650 OA
ATOM      2  C   UNK d   0      19.150  12.633 -12.861  0.00  0.00     0.139 C 
ENDROOT
BRANCH   2   3
ATOM      3  O   UNK d   0      20.333  12.953 -13.482  0.00  0.00    -0.776 OA
ATOM      4  H   UNK d   0      21.081  13.432 -12.977  0.00  0.00     0.167 HD
ENDBRANCH   2   3
BRANCH   2   5
ATOM      5  C   UNK d   0      19.002  11.340 -12.135  0.00  0.00     0.115 C 
BRANCH   5   6
ATOM      6  C   UNK d   0      17.890  10.529 -12.743  0.00  0.00     0.052 C 
BRANCH   6   7
ATOM      7  C   UNK d   0      17.452   9.387 -11.858  0.00  0.00    -0.020 A 
ATOM      8  C   UNK d   0      17.697   8.112 -12.020  0.00  0.00    -0.011 A 
ATOM      9  C   UNK d   0      17.067   7.395 -10.924  0.00  0.00     0.067 A 
ATOM     10  C   UNK d   0      16.973   6.056 -10.512  0.00  0.00     0.062 C 
ATOM     11  N   UNK d   0      16.455   8.311 -10.145  0.00  0.00    -0.248 NA
ATOM     12  C   UNK d   0      16.552   5.582  -9.265  0.00  0.00     0.041 A 
ATOM     13  N   UNK d   0      15.529   5.956  -8.473  0.00  0.00    -0.355 N 
ATOM     14  C   UNK d   0      17.303   4.575  -8.631  0.00  0.00    -0.022 A 
ATOM     15  C   UNK d   0      15.616   5.219  -7.350  0.00  0.00     0.042 A 
ATOM     16  H   UNK d   0      14.749   6.712  -8.712  0.00  0.00     0.166 HD
ATOM     17  C   UNK d   0      14.801   5.206  -6.200  0.00  0.00     0.062 C 
ATOM     18  C   UNK d   0      16.716   4.342  -7.412  0.00  0.00    -0.013 A 
ATOM     19  C   UNK d   0      14.299   6.265  -5.487  0.00  0.00     0.067 A 
ATOM     20  N   UNK d   0      14.415   7.475  -6.040  0.00  0.00    -0.248 NA
ATOM     21  C   UNK d   0      13.644   6.442  -4.202  0.00  0.00    -0.011 A 
ATOM     22  C   UNK d   0      13.884   8.431  -5.209  0.00  0.00     0.066 A 
ATOM     23  C   UNK d   0      13.904   9.736  -5.679  0.00  0.00     0.062 C 
ATOM     24  C   UNK d   0      13.407   7.712  -4.044  0.00  0.00    -0.020 A 
ATOM     25  C   UNK d   0      14.319  10.190  -6.940  0.00  0.00     0.041 A 
ATOM     26  N   UNK d   0      15.345   9.829  -7.720  0.00  0.00    -0.355 N 
ATOM     27  C   UNK d   0      13.562  11.197  -7.578  0.00  0.00    -0.022 A 
ATOM     28  C   UNK d   0      15.265  10.569  -8.837  0.00  0.00     0.042 A 
ATOM     29  H   UNK d   0      16.134   9.076  -7.474  0.00  0.00     0.166 HD
ATOM     30  C   UNK d   0      16.074  10.598  -9.984  0.00  0.00     0.062 C 
ATOM     31  C   UNK d   0      14.154  11.442  -8.779  0.00  0.00    -0.013 A 
ATOM     32  C   UNK d   0      16.650   9.529 -10.652  0.00  0.00     0.066 A 
BRANCH   8  33
ATOM     33  C   UNK d   0      18.467   7.491 -13.114  0.00  0.00     0.151 C 
BRANCH  33  34
ATOM     34  C   UNK d   0      17.692   7.372 -14.362  0.00  0.00     0.143 C 
ATOM     35  O   UNK d   0      18.259   7.342 -15.463  0.00  0.00    -0.650 OA
BRANCH  34  36
ATOM     36  O   UNK d   0      16.320   7.295 -14.299  0.00  0.00    -0.776 OA
ATOM     37  H   UNK d   0      15.804   6.544 -14.780  0.00  0.00     0.167 HD
ENDBRANCH  34  36
ENDBRANCH  33  34
ENDBRANCH   8  33
BRANCH  31  38
ATOM     38  C   UNK d   0      13.685  12.436  -9.816  0.00  0.00     0.151 C 
BRANCH  38  39
ATOM     39  C   UNK d   0      14.267  13.749  -9.639  0.00  0.00     0.143 C 
ATOM     40  O   UNK d   0      14.015  14.698 -10.402  0.00  0.00    -0.650 OA
BRANCH  39  41
ATOM     41  O   UNK d   0      15.144  13.974  -8.577  0.00  0.00    -0.776 OA
ATOM     42  H   UNK d   0      15.070  13.340  -7.776  0.00  0.00     0.167 HD
ENDBRANCH  39  41
ENDBRANCH  38  39
ENDBRANCH  31  38
BRANCH  27  43
ATOM     43  C   UNK d   0      12.328  11.918  -7.096  0.00  0.00     0.052 C 
BRANCH  43  44
ATOM     44  C   UNK d   0      11.105  11.590  -7.888  0.00  0.00     0.115 C 
BRANCH  44  45
ATOM     45  C   UNK d   0      10.434  12.881  -8.188  0.00  0.00     0.139 C 
ATOM     46  O   UNK d   0      10.925  13.930  -7.702  0.00  0.00    -0.650 OA
BRANCH  45  47
ATOM     47  O   UNK d   0       9.307  12.973  -8.976  0.00  0.00    -0.776 OA
ATOM     48  H   UNK d   0       9.332  13.311  -9.952  0.00  0.00     0.167 HD
ENDBRANCH  45  47
ENDBRANCH  44  45
ENDBRANCH  43  44
ENDBRANCH  27  43
BRANCH  24  49
ATOM     49  C   UNK d   0      12.721   8.331  -2.896  0.00  0.00     0.052 C 
BRANCH  49  50
ATOM     50  C   UNK d   0      13.688   8.542  -1.759  0.00  0.00     0.115 C 
BRANCH  50  51
ATOM     51  C   UNK d   0      13.292   8.042  -0.449  0.00  0.00     0.139 C 
ATOM     52  O   UNK d   0      12.102   7.777  -0.158  0.00  0.00    -0.650 OA
BRANCH  51  53
ATOM     53  O   UNK d   0      14.253   7.848   0.531  0.00  0.00    -0.776 OA
ATOM     54  H   UNK d   0      14.014   7.281   1.326  0.00  0.00     0.167 HD
ENDBRANCH  51  53
ENDBRANCH  50  51
ENDBRANCH  49  50
ENDBRANCH  24  49
BRANCH  21  55
ATOM     55  C   UNK d   0      13.318   5.323  -3.269  0.00  0.00     0.151 C 
BRANCH  55  56
ATOM     56  C   UNK d   0      11.867   5.162  -3.086  0.00  0.00     0.143 C 
ATOM     57  O   UNK d   0      11.097   4.867  -4.021  0.00  0.00    -0.650 OA
BRANCH  56  58
ATOM     58  O   UNK d   0      11.350   5.353  -1.805  0.00  0.00    -0.776 OA
ATOM     59  H   UNK d   0      12.045   5.642  -1.093  0.00  0.00     0.167 HD
ENDBRANCH  56  58
ENDBRANCH  55  56
ENDBRANCH  21  55
BRANCH  18  60
ATOM     60  C   UNK d   0      17.204   3.339  -6.395  0.00  0.00     0.151 C 
BRANCH  60  61
ATOM     61  C   UNK d   0      16.331   2.164  -6.535  0.00  0.00     0.143 C 
ATOM     62  O   UNK d   0      16.296   1.373  -7.478  0.00  0.00    -0.650 OA
BRANCH  61  63
ATOM     63  O   UNK d   0      15.444   1.942  -5.454  0.00  0.00    -0.776 OA
ATOM     64  H   UNK d   0      14.978   1.059  -5.340  0.00  0.00     0.167 HD
ENDBRANCH  61  63
ENDBRANCH  60  61
ENDBRANCH  18  60
BRANCH  14  65
ATOM     65  C   UNK d   0      18.462   3.758  -9.125  0.00  0.00     0.052 C 
BRANCH  65  66
ATOM     66  C   UNK d   0      18.081   2.797 -10.195  0.00  0.00     0.115 C 
BRANCH  66  67
ATOM     67  C   UNK d   0      19.101   2.195 -11.007  0.00  0.00     0.139 C 
ATOM     68  O   UNK d   0      19.278   2.640 -12.201  0.00  0.00    -0.650 OA
BRANCH  67  69
ATOM     69  O   UNK d   0      19.960   1.151 -10.664  0.00  0.00    -0.776 OA
ATOM     70  H   UNK d   0      20.391   0.649 -11.453  0.00  0.00     0.167 HD
ENDBRANCH  67  69
ENDBRANCH  66  67
ENDBRANCH  65  66
ENDBRANCH  14  65
ENDBRANCH   6   7
ENDBRANCH   5   6
ENDBRANCH   2   5
TORSDOF 28
ENDMDL
MODEL 4
REMARK VINA RESULT:      -8.0      1.439      7.663
REMARK  28 active torsions:
REMARK  status: ('A' for Active; 'I' for Inactive)
REMARK    1  A    between atoms: C_2  and  O_3 
REMARK    2  A    between atoms: C_2  and  C_4 
REMARK    3  A    between atoms: C_4  and  C_5 
REMARK    4  A    between atoms: C_5  and  C_6 
REMARK    5  A    between atoms: C_7  and  C_8 
REMARK    6  A    between atoms: C_8  and  C_9 
REMARK    7  A    between atoms: C_9  and  O_11 
REMARK    8  A    between atoms: C_28  and  C_29 
REMARK    9  A    between atoms: C_29  and  C_30 
REMARK   10  A    between atoms: C_30  and  O_32 
REMARK   11  A    between atoms: C_33  and  C_34 
REMARK   12  A    between atoms: C_34  and  C_35 
REMARK   13  A    between atoms: C_35  and  C_36 
REMARK   14  A    between atoms: C_36  and  O_38 
REMARK   15  A    between atoms: C_39  and  C_40 
REMARK   16  A    between atoms: C_40  and  C_41 
REMARK   17  A    between atoms: C_41  and  C_42 
REMARK   18  A    between atoms: C_42  and  O_44 
REMARK   19  A    between atoms: C_45  and  C_46 
REMARK   20  A    between atoms: C_46  and  C_47 
REMARK   21  A    between atoms: C_47  and  O_49 
REMARK   22  A    between atoms: C_50  and  C_51 
REMARK   23  A    between atoms: C_51  and  C_52 
REMARK   24  A    between atoms: C_52  and  O_54 
REMARK   25  A    between atoms: C_55  and  C_56 
REMARK   26  A    between atoms: C_56  and  C_57 
REMARK   27  A    between atoms: C_57  and  C_58 
REMARK   28  A    between atoms: C_58  and  O_60 
ROOT
ATOM      1  O   UNK d   0      18.921  14.897 -14.072  0.00  0.00    -0.650 OA
ATOM      2  C   UNK d   0      17.932  14.243 -13.674  0.00  0.00     0.139 C 
ENDROOT
BRANCH   2   3
ATOM      3  O   UNK d   0      16.679  14.802 -13.753  0.00  0.00    -0.776 OA
ATOM      4  H   UNK d   0      15.971  14.423 -14.385  0.00  0.00     0.167 HD
ENDBRANCH   2   3
BRANCH   2   5
ATOM      5  C   UNK d   0      18.115  12.871 -13.121  0.00  0.00     0.115 C 
BRANCH   5   6
ATOM      6  C   UNK d   0      16.799  12.140 -13.103  0.00  0.00     0.052 C 
BRANCH   6   7
ATOM      7  C   UNK d   0      16.407  11.684 -11.718  0.00  0.00    -0.020 A 
ATOM      8  C   UNK d   0      15.903  12.409 -10.752  0.00  0.00    -0.011 A 
ATOM      9  C   UNK d   0      15.697  11.540  -9.605  0.00  0.00     0.067 A 
ATOM     10  C   UNK d   0      15.185  11.682  -8.306  0.00  0.00     0.062 C 
ATOM     11  N   UNK d   0      16.108  10.305  -9.959  0.00  0.00    -0.248 NA
ATOM     12  C   UNK d   0      14.806  10.661  -7.428  0.00  0.00     0.041 A 
ATOM     13  N   UNK d   0      15.393   9.487  -7.128  0.00  0.00    -0.355 N 
ATOM     14  C   UNK d   0      13.585  10.775  -6.738  0.00  0.00    -0.022 A 
ATOM     15  C   UNK d   0      14.572   8.850  -6.271  0.00  0.00     0.042 A 
ATOM     16  H   UNK d   0      16.377   9.124  -7.499  0.00  0.00     0.166 HD
ATOM     17  C   UNK d   0      14.702   7.594  -5.645  0.00  0.00     0.062 C 
ATOM     18  C   UNK d   0      13.428   9.626  -6.003  0.00  0.00    -0.013 A 
ATOM     19  C   UNK d   0      15.096   6.397  -6.186  0.00  0.00     0.067 A 
ATOM     20  N   UNK d   0      15.618   6.432  -7.415  0.00  0.00    -0.248 NA
ATOM     21  C   UNK d   0      15.086   5.006  -5.765  0.00  0.00    -0.011 A 
ATOM     22  C   UNK d   0      15.950   5.164  -7.828  0.00  0.00     0.066 A 
ATOM     23  C   UNK d   0      16.541   5.058  -9.078  0.00  0.00     0.062 C 
ATOM     24  C   UNK d   0      15.584   4.289  -6.731  0.00  0.00    -0.020 A 
ATOM     25  C   UNK d   0      16.925   6.098  -9.939  0.00  0.00     0.041 A 
ATOM     26  N   UNK d   0      16.335   7.258 -10.249  0.00  0.00    -0.355 N 
ATOM     27  C   UNK d   0      18.153   5.984 -10.628  0.00  0.00    -0.022 A 
ATOM     28  C   UNK d   0      17.147   7.892 -11.110  0.00  0.00     0.042 A 
ATOM     29  H   UNK d   0      15.341   7.616  -9.884  0.00  0.00     0.166 HD
ATOM     30  C   UNK d   0      17.026   9.136 -11.747  0.00  0.00     0.062 C 
ATOM     31  C   UNK d   0      18.301   7.115 -11.370  0.00  0.00    -0.013 A 
ATOM     32  C   UNK d   0      16.547  10.324 -11.219  0.00  0.00     0.066 A 
BRANCH   8  33
ATOM     33  C   UNK d   0      15.596  13.851 -10.794  0.00  0.00     0.151 C 
BRANCH  33  34
ATOM     34  C   UNK d   0      14.297  14.139 -11.428  0.00  0.00     0.143 C 
ATOM     35  O   UNK d   0      14.112  15.195 -12.049  0.00  0.00    -0.650 OA
BRANCH  34  36
ATOM     36  O   UNK d   0      13.277  13.221 -11.326  0.00  0.00    -0.776 OA
ATOM     37  H   UNK d   0      12.730  13.124 -10.460  0.00  0.00     0.167 HD
ENDBRANCH  34  36
ENDBRANCH  33  34
ENDBRANCH   8  33
BRANCH  31  38
ATOM     38  C   UNK d   0      19.474   7.448 -12.264  0.00  0.00     0.151 C 
BRANCH  38  39
ATOM     39  C   UNK d   0      20.483   8.241 -11.594  0.00  0.00     0.143 C 
ATOM     40  O   UNK d   0      20.518   9.481 -11.677  0.00  0.00    -0.650 OA
BRANCH  39  41
ATOM     41  O   UNK d   0      21.456   7.604 -10.825  0.00  0.00    -0.776 OA
ATOM     42  H   UNK d   0      22.305   7.302 -11.313  0.00  0.00     0.167 HD
ENDBRANCH  39  41
ENDBRANCH  38  39
ENDBRANCH  31  38
BRANCH  27  43
ATOM     43  C   UNK d   0      19.164   4.865 -10.607  0.00  0.00     0.052 C 
BRANCH  43  44
ATOM     44  C   UNK d   0      18.628   3.576 -11.139  0.00  0.00     0.115 C 
BRANCH  44  45
ATOM     45  C   UNK d   0      19.789   2.658 -11.275  0.00  0.00     0.139 C 
ATOM     46  O   UNK d   0      20.883   3.140 -11.659  0.00  0.00    -0.650 OA
BRANCH  45  47
ATOM     47  O   UNK d   0      19.714   1.311 -10.993  0.00  0.00    -0.776 OA
ATOM     48  H   UNK d   0      19.380   0.947 -10.086  0.00  0.00     0.167 HD
ENDBRANCH  45  47
ENDBRANCH  44  45
ENDBRANCH  43  44
ENDBRANCH  27  43
BRANCH  24  49
ATOM     49  C   UNK d   0      15.795   2.832  -6.712  0.00  0.00     0.052 C 
BRANCH  49  50
ATOM     50  C   UNK d   0      17.267   2.515  -6.764  0.00  0.00     0.115 C 
BRANCH  50  51
ATOM     51  C   UNK d   0      17.751   1.794  -7.935  0.00  0.00     0.139 C 
ATOM     52  O   UNK d   0      16.990   1.408  -8.853  0.00  0.00    -0.650 OA
BRANCH  51  53
ATOM     53  O   UNK d   0      19.103   1.512  -8.056  0.00  0.00    -0.776 OA
ATOM     54  H   UNK d   0      19.755   2.274  -7.991  0.00  0.00     0.167 HD
ENDBRANCH  51  53
ENDBRANCH  50  51
ENDBRANCH  49  50
ENDBRANCH  24  49
BRANCH  21  55
ATOM     55  C   UNK d   0      14.586   4.539  -4.438  0.00  0.00     0.151 C 
BRANCH  55  56
ATOM     56  C   UNK d   0      13.449   5.343  -3.964  0.00  0.00     0.143 C 
ATOM     57  O   UNK d   0      13.470   5.972  -2.888  0.00  0.00    -0.650 OA
BRANCH  56  58
ATOM     58  O   UNK d   0      12.309   5.391  -4.765  0.00  0.00    -0.776 OA
ATOM     59  H   UNK d   0      12.071   4.502  -5.239  0.00  0.00     0.167 HD
ENDBRANCH  56  58
ENDBRANCH  55  56
ENDBRANCH  21  55
BRANCH  18  60
ATOM     60  C   UNK d   0      12.247   9.322  -5.116  0.00  0.00     0.151 C 
BRANCH  60  61
ATOM     61  C   UNK d   0      12.768   9.305  -3.741  0.00  0.00     0.143 C 
ATOM     62  O   UNK d   0      13.731   9.936  -3.305  0.00  0.00    -0.650 OA
BRANCH  61  63
ATOM     63  O   UNK d   0      12.069   8.464  -2.842  0.00  0.00    -0.776 OA
ATOM     64  H   UNK d   0      11.082   8.576  -2.688  0.00  0.00     0.167 HD
ENDBRANCH  61  63
ENDBRANCH  60  61
ENDBRANCH  18  60
BRANCH  14  65
ATOM     65  C   UNK d   0      12.614  11.918  -6.645  0.00  0.00     0.052 C 
BRANCH  65  66
ATOM     66  C   UNK d   0      12.029  12.293  -7.960  0.00  0.00     0.115 C 
BRANCH  66  67
ATOM     67  C   UNK d   0      11.167  11.370  -8.645  0.00  0.00     0.139 C 
ATOM     68  O   UNK d   0      10.104  11.826  -9.207  0.00  0.00    -0.650 OA
BRANCH  67  69
ATOM     69  O   UNK d   0      11.333   9.993  -8.787  0.00  0.00    -0.776 OA
ATOM     70  H   UNK d   0      12.303   9.651  -8.736  0.00  0.00     0.167 HD
ENDBRANCH  67  69
ENDBRANCH  66  67
ENDBRANCH  65  66
ENDBRANCH  14  65
ENDBRANCH   6   7
ENDBRANCH   5   6
ENDBRANCH   2   5
TORSDOF 28
ENDMDL
MODEL 5
REMARK VINA RESULT:      -7.9      1.669      7.955
REMARK  28 active torsions:
REMARK  status: ('A' for Active; 'I' for Inactive)
REMARK    1  A    between atoms: C_2  and  O_3 
REMARK    2  A    between atoms: C_2  and  C_4 
REMARK    3  A    between atoms: C_4  and  C_5 
REMARK    4  A    between atoms: C_5  and  C_6 
REMARK    5  A    between atoms: C_7  and  C_8 
REMARK    6  A    between atoms: C_8  and  C_9 
REMARK    7  A    between atoms: C_9  and  O_11 
REMARK    8  A    between atoms: C_28  and  C_29 
REMARK    9  A    between atoms: C_29  and  C_30 
REMARK   10  A    between atoms: C_30  and  O_32 
REMARK   11  A    between atoms: C_33  and  C_34 
REMARK   12  A    between atoms: C_34  and  C_35 
REMARK   13  A    between atoms: C_35  and  C_36 
REMARK   14  A    between atoms: C_36  and  O_38 
REMARK   15  A    between atoms: C_39  and  C_40 
REMARK   16  A    between atoms: C_40  and  C_41 
REMARK   17  A    between atoms: C_41  and  C_42 
REMARK   18  A    between atoms: C_42  and  O_44 
REMARK   19  A    between atoms: C_45  and  C_46 
REMARK   20  A    between atoms: C_46  and  C_47 
REMARK   21  A    between atoms: C_47  and  O_49 
REMARK   22  A    between atoms: C_50  and  C_51 
REMARK   23  A    between atoms: C_51  and  C_52 
REMARK   24  A    between atoms: C_52  and  O_54 
REMARK   25  A    between atoms: C_55  and  C_56 
REMARK   26  A    between atoms: C_56  and  C_57 
REMARK   27  A    between atoms: C_57  and  C_58 
REMARK   28  A    between atoms: C_58  and  O_60 
ROOT
ATOM      1  O   UNK d   0      16.284  -0.310  -6.782  0.00  0.00    -0.650 OA
ATOM      2  C   UNK d   0      17.253   0.397  -6.428  0.00  0.00     0.139 C 
ENDROOT
BRANCH   2   3
ATOM      3  O   UNK d   0      18.425  -0.209  -6.043  0.00  0.00    -0.776 OA
ATOM      4  H   UNK d   0      19.331   0.220  -6.242  0.00  0.00     0.167 HD
ENDBRANCH   2   3
BRANCH   2   5
ATOM      5  C   UNK d   0      17.133   1.883  -6.424  0.00  0.00     0.115 C 
BRANCH   5   6
ATOM      6  C   UNK d   0      16.053   2.318  -7.377  0.00  0.00     0.052 C 
BRANCH   6   7
ATOM      7  C   UNK d   0      16.398   3.596  -8.102  0.00  0.00    -0.020 A 
ATOM      8  C   UNK d   0      17.144   3.733  -9.168  0.00  0.00    -0.011 A 
ATOM      9  C   UNK d   0      17.197   5.148  -9.496  0.00  0.00     0.067 A 
ATOM     10  C   UNK d   0      17.787   5.934 -10.497  0.00  0.00     0.062 C 
ATOM     11  N   UNK d   0      16.459   5.801  -8.573  0.00  0.00    -0.248 NA
ATOM     12  C   UNK d   0      17.495   7.266 -10.811  0.00  0.00     0.041 A 
ATOM     13  N   UNK d   0      17.278   8.336 -10.023  0.00  0.00    -0.355 N 
ATOM     14  C   UNK d   0      17.330   7.627 -12.161  0.00  0.00    -0.022 A 
ATOM     15  C   UNK d   0      16.971   9.364 -10.837  0.00  0.00     0.042 A 
ATOM     16  H   UNK d   0      17.360   8.369  -8.914  0.00  0.00     0.166 HD
ATOM     17  C   UNK d   0      16.658  10.704 -10.536  0.00  0.00     0.062 C 
ATOM     18  C   UNK d   0      16.993   8.957 -12.185  0.00  0.00    -0.013 A 
ATOM     19  C   UNK d   0      15.823  11.199  -9.568  0.00  0.00     0.067 A 
ATOM     20  N   UNK d   0      15.387  10.335  -8.647  0.00  0.00    -0.248 NA
ATOM     21  C   UNK d   0      15.232  12.490  -9.257  0.00  0.00    -0.011 A 
ATOM     22  C   UNK d   0      14.552  10.967  -7.758  0.00  0.00     0.066 A 
ATOM     23  C   UNK d   0      14.055  10.191  -6.721  0.00  0.00     0.062 C 
ATOM     24  C   UNK d   0      14.486  12.346  -8.199  0.00  0.00    -0.020 A 
ATOM     25  C   UNK d   0      14.370   8.858  -6.416  0.00  0.00     0.041 A 
ATOM     26  N   UNK d   0      14.571   7.792  -7.199  0.00  0.00    -0.355 N 
ATOM     27  C   UNK d   0      14.541   8.499  -5.061  0.00  0.00    -0.022 A 
ATOM     28  C   UNK d   0      14.869   6.764  -6.389  0.00  0.00     0.042 A 
ATOM     29  H   UNK d   0      14.479   7.758  -8.312  0.00  0.00     0.166 HD
ATOM     30  C   UNK d   0      15.174   5.423  -6.673  0.00  0.00     0.062 C 
ATOM     31  C   UNK d   0      14.857   7.175  -5.035  0.00  0.00    -0.013 A 
ATOM     32  C   UNK d   0      15.951   4.924  -7.706  0.00  0.00     0.066 A 
BRANCH   8  33
ATOM     33  C   UNK d   0      17.824   2.660  -9.916  0.00  0.00     0.151 C 
BRANCH  33  34
ATOM     34  C   UNK d   0      19.260   2.564  -9.598  0.00  0.00     0.143 C 
ATOM     35  O   UNK d   0      19.674   1.749  -8.761  0.00  0.00    -0.650 OA
BRANCH  34  36
ATOM     36  O   UNK d   0      20.151   3.393 -10.239  0.00  0.00    -0.776 OA
ATOM     37  H   UNK d   0      19.831   4.103 -10.912  0.00  0.00     0.167 HD
ENDBRANCH  34  36
ENDBRANCH  33  34
ENDBRANCH   8  33
BRANCH  31  38
ATOM     38  C   UNK d   0      15.145   6.351  -3.802  0.00  0.00     0.151 C 
BRANCH  38  39
ATOM     39  C   UNK d   0      14.183   5.289  -3.599  0.00  0.00     0.143 C 
ATOM     40  O   UNK d   0      14.505   4.088  -3.611  0.00  0.00    -0.650 OA
BRANCH  39  41
ATOM     41  O   UNK d   0      12.843   5.609  -3.380  0.00  0.00    -0.776 OA
ATOM     42  H   UNK d   0      12.638   6.219  -2.582  0.00  0.00     0.167 HD
ENDBRANCH  39  41
ENDBRANCH  38  39
ENDBRANCH  31  38
BRANCH  27  43
ATOM     43  C   UNK d   0      14.415   9.347  -3.821  0.00  0.00     0.052 C 
BRANCH  43  44
ATOM     44  C   UNK d   0      13.030   9.370  -3.259  0.00  0.00     0.115 C 
BRANCH  44  45
ATOM     45  C   UNK d   0      13.099   8.701  -1.934  0.00  0.00     0.139 C 
ATOM     46  O   UNK d   0      12.228   7.838  -1.661  0.00  0.00    -0.650 OA
BRANCH  45  47
ATOM     47  O   UNK d   0      14.076   8.983  -1.004  0.00  0.00    -0.776 OA
ATOM     48  H   UNK d   0      15.073   8.760  -1.154  0.00  0.00     0.167 HD
ENDBRANCH  45  47
ENDBRANCH  44  45
ENDBRANCH  43  44
ENDBRANCH  27  43
BRANCH  24  49
ATOM     49  C   UNK d   0      13.732  13.412  -7.518  0.00  0.00     0.052 C 
BRANCH  49  50
ATOM     50  C   UNK d   0      12.494  13.762  -8.302  0.00  0.00     0.115 C 
BRANCH  50  51
ATOM     51  C   UNK d   0      11.580  12.674  -8.623  0.00  0.00     0.139 C 
ATOM     52  O   UNK d   0      11.027  11.973  -7.743  0.00  0.00    -0.650 OA
BRANCH  51  53
ATOM     53  O   UNK d   0      11.299  12.383  -9.949  0.00  0.00    -0.776 OA
ATOM     54  H   UNK d   0      10.609  12.940 -10.422  0.00  0.00     0.167 HD
ENDBRANCH  51  53
ENDBRANCH  50  51
ENDBRANCH  49  50
ENDBRANCH  24  49
BRANCH  21  55
ATOM     55  C   UNK d   0      15.477  13.732 -10.047  0.00  0.00     0.151 C 
BRANCH  55  56
ATOM     56  C   UNK d   0      14.921  13.641 -11.405  0.00  0.00     0.143 C 
ATOM     57  O   UNK d   0      13.729  13.349 -11.628  0.00  0.00    -0.650 OA
BRANCH  56  58
ATOM     58  O   UNK d   0      15.776  13.897 -12.476  0.00  0.00    -0.776 OA
ATOM     59  H   UNK d   0      16.573  14.522 -12.258  0.00  0.00     0.167 HD
ENDBRANCH  56  58
ENDBRANCH  55  56
ENDBRANCH  21  55
BRANCH  18  60
ATOM     60  C   UNK d   0      16.714   9.756 -13.434  0.00  0.00     0.151 C 
BRANCH  60  61
ATOM     61  C   UNK d   0      17.880  10.633 -13.621  0.00  0.00     0.143 C 
ATOM     62  O   UNK d   0      19.067  10.308 -13.581  0.00  0.00    -0.650 OA
BRANCH  61  63
ATOM     63  O   UNK d   0      17.577  11.993 -13.874  0.00  0.00    -0.776 OA
ATOM     64  H   UNK d   0      16.799  12.443 -13.425  0.00  0.00     0.167 HD
ENDBRANCH  61  63
ENDBRANCH  60  61
ENDBRANCH  18  60
BRANCH  14  65
ATOM     65  C   UNK d   0      17.559   6.842 -13.421  0.00  0.00     0.052 C 
BRANCH  65  66
ATOM     66  C   UNK d   0      18.997   6.564 -13.680  0.00  0.00     0.115 C 
BRANCH  66  67
ATOM     67  C   UNK d   0      19.641   5.466 -13.015  0.00  0.00     0.139 C 
ATOM     68  O   UNK d   0      20.646   5.715 -12.251  0.00  0.00    -0.650 OA
BRANCH  67  69
ATOM     69  O   UNK d   0      19.312   4.113 -13.087  0.00  0.00    -0.776 OA
ATOM     70  H   UNK d   0      19.204   3.629 -12.184  0.00  0.00     0.167 HD
ENDBRANCH  67  69
ENDBRANCH  66  67
ENDBRANCH  65  66
ENDBRANCH  14  65
ENDBRANCH   6   7
ENDBRANCH   5   6
ENDBRANCH   2   5
TORSDOF 28
ENDMDL
MODEL 6
REMARK VINA RESULT:      -7.9      7.166     11.643
REMARK  28 active torsions:
REMARK  status: ('A' for Active; 'I' for Inactive)
REMARK    1  A    between atoms: C_2  and  O_3 
REMARK    2  A    between atoms: C_2  and  C_4 
REMARK    3  A    between atoms: C_4  and  C_5 
REMARK    4  A    between atoms: C_5  and  C_6 
REMARK    5  A    between atoms: C_7  and  C_8 
REMARK    6  A    between atoms: C_8  and  C_9 
REMARK    7  A    between atoms: C_9  and  O_11 
REMARK    8  A    between atoms: C_28  and  C_29 
REMARK    9  A    between atoms: C_29  and  C_30 
REMARK   10  A    between atoms: C_30  and  O_32 
REMARK   11  A    between atoms: C_33  and  C_34 
REMARK   12  A    between atoms: C_34  and  C_35 
REMARK   13  A    between atoms: C_35  and  C_36 
REMARK   14  A    between atoms: C_36  and  O_38 
REMARK   15  A    between atoms: C_39  and  C_40 
REMARK   16  A    between atoms: C_40  and  C_41 
REMARK   17  A    between atoms: C_41  and  C_42 
REMARK   18  A    between atoms: C_42  and  O_44 
REMARK   19  A    between atoms: C_45  and  C_46 
REMARK   20  A    between atoms: C_46  and  C_47 
REMARK   21  A    between atoms: C_47  and  O_49 
REMARK   22  A    between atoms: C_50  and  C_51 
REMARK   23  A    between atoms: C_51  and  C_52 
REMARK   24  A    between atoms: C_52  and  O_54 
REMARK   25  A    between atoms: C_55  and  C_56 
REMARK   26  A    between atoms: C_56  and  C_57 
REMARK   27  A    between atoms: C_57  and  C_58 
REMARK   28  A    between atoms: C_58  and  O_60 
ROOT
ATOM      1  O   UNK d   0       8.081  20.442  -3.783  0.00  0.00    -0.650 OA
ATOM      2  C   UNK d   0       8.780  19.685  -3.073  0.00  0.00     0.139 C 
ENDROOT
BRANCH   2   3
ATOM      3  O   UNK d   0       8.204  19.039  -2.006  0.00  0.00    -0.776 OA
ATOM      4  H   UNK d   0       7.202  18.838  -1.991  0.00  0.00     0.167 HD
ENDBRANCH   2   3
BRANCH   2   5
ATOM      5  C   UNK d   0      10.225  19.491  -3.385  0.00  0.00     0.115 C 
BRANCH   5   6
ATOM      6  C   UNK d   0      10.525  19.982  -4.775  0.00  0.00     0.052 C 
BRANCH   6   7
ATOM      7  C   UNK d   0      10.792  18.855  -5.745  0.00  0.00    -0.020 A 
ATOM      8  C   UNK d   0      11.951  18.439  -6.186  0.00  0.00    -0.011 A 
ATOM      9  C   UNK d   0      11.709  17.339  -7.105  0.00  0.00     0.067 A 
ATOM     10  C   UNK d   0      12.498  16.472  -7.876  0.00  0.00     0.062 C 
ATOM     11  N   UNK d   0      10.373  17.157  -7.168  0.00  0.00    -0.248 NA
ATOM     12  C   UNK d   0      12.095  15.282  -8.492  0.00  0.00     0.041 A 
ATOM     13  N   UNK d   0      10.983  14.976  -9.187  0.00  0.00    -0.355 N 
ATOM     14  C   UNK d   0      12.910  14.142  -8.369  0.00  0.00    -0.022 A 
ATOM     15  C   UNK d   0      11.067  13.670  -9.500  0.00  0.00     0.042 A 
ATOM     16  H   UNK d   0      10.164  15.675  -9.466  0.00  0.00     0.166 HD
ATOM     17  C   UNK d   0      10.179  12.844 -10.217  0.00  0.00     0.062 C 
ATOM     18  C   UNK d   0      12.261  13.112  -9.004  0.00  0.00    -0.013 A 
ATOM     19  C   UNK d   0       8.814  12.749 -10.113  0.00  0.00     0.067 A 
ATOM     20  N   UNK d   0       8.197  13.686  -9.388  0.00  0.00    -0.248 NA
ATOM     21  C   UNK d   0       7.790  11.839 -10.597  0.00  0.00    -0.011 A 
ATOM     22  C   UNK d   0       6.844  13.453  -9.362  0.00  0.00     0.066 A 
ATOM     23  C   UNK d   0       6.073  14.377  -8.672  0.00  0.00     0.062 C 
ATOM     24  C   UNK d   0       6.639  12.254 -10.151  0.00  0.00    -0.020 A 
ATOM     25  C   UNK d   0       6.495  15.572  -8.070  0.00  0.00     0.041 A 
ATOM     26  N   UNK d   0       7.594  15.873  -7.367  0.00  0.00    -0.355 N 
ATOM     27  C   UNK d   0       5.679  16.718  -8.198  0.00  0.00    -0.022 A 
ATOM     28  C   UNK d   0       7.508  17.173  -7.046  0.00  0.00     0.042 A 
ATOM     29  H   UNK d   0       8.411  15.167  -7.078  0.00  0.00     0.166 HD
ATOM     30  C   UNK d   0       8.380  18.005  -6.326  0.00  0.00     0.062 C 
ATOM     31  C   UNK d   0       6.313  17.735  -7.554  0.00  0.00    -0.013 A 
ATOM     32  C   UNK d   0       9.765  18.037  -6.373  0.00  0.00     0.066 A 
BRANCH   8  33
ATOM     33  C   UNK d   0      13.278  18.978  -5.832  0.00  0.00     0.151 C 
BRANCH  33  34
ATOM     34  C   UNK d   0      13.731  20.032  -6.757  0.00  0.00     0.143 C 
ATOM     35  O   UNK d   0      14.234  19.744  -7.853  0.00  0.00    -0.650 OA
BRANCH  34  36
ATOM     36  O   UNK d   0      13.592  21.352  -6.397  0.00  0.00    -0.776 OA
ATOM     37  H   UNK d   0      14.274  21.811  -5.778  0.00  0.00     0.167 HD
ENDBRANCH  34  36
ENDBRANCH  33  34
ENDBRANCH   8  33
BRANCH  31  38
ATOM     38  C   UNK d   0       5.822  19.159  -7.437  0.00  0.00     0.151 C 
BRANCH  38  39
ATOM     39  C   UNK d   0       5.014  19.379  -6.256  0.00  0.00     0.143 C 
ATOM     40  O   UNK d   0       3.771  19.371  -6.290  0.00  0.00    -0.650 OA
BRANCH  39  41
ATOM     41  O   UNK d   0       5.638  19.609  -5.030  0.00  0.00    -0.776 OA
ATOM     42  H   UNK d   0       5.026  19.770  -4.224  0.00  0.00     0.167 HD
ENDBRANCH  39  41
ENDBRANCH  38  39
ENDBRANCH  31  38
BRANCH  27  43
ATOM     43  C   UNK d   0       4.350  16.874  -8.893  0.00  0.00     0.052 C 
BRANCH  43  44
ATOM     44  C   UNK d   0       3.186  16.496  -8.035  0.00  0.00     0.115 C 
BRANCH  44  45
ATOM     45  C   UNK d   0       2.487  15.387  -8.734  0.00  0.00     0.139 C 
ATOM     46  O   UNK d   0       1.574  15.681  -9.545  0.00  0.00    -0.650 OA
BRANCH  45  47
ATOM     47  O   UNK d   0       2.801  14.060  -8.534  0.00  0.00    -0.776 OA
ATOM     48  H   UNK d   0       2.798  13.618  -7.600  0.00  0.00     0.167 HD
ENDBRANCH  45  47
ENDBRANCH  44  45
ENDBRANCH  43  44
ENDBRANCH  27  43
BRANCH  24  49
ATOM     49  C   UNK d   0       5.328  11.647 -10.434  0.00  0.00     0.052 C 
BRANCH  49  50
ATOM     50  C   UNK d   0       4.608  12.428 -11.503  0.00  0.00     0.115 C 
BRANCH  50  51
ATOM     51  C   UNK d   0       4.004  11.668 -12.589  0.00  0.00     0.139 C 
ATOM     52  O   UNK d   0       2.803  11.802 -12.922  0.00  0.00    -0.650 OA
BRANCH  51  53
ATOM     53  O   UNK d   0       4.770  10.752 -13.294  0.00  0.00    -0.776 OA
ATOM     54  H   UNK d   0       5.228  10.020 -12.781  0.00  0.00     0.167 HD
ENDBRANCH  51  53
ENDBRANCH  50  51
ENDBRANCH  49  50
ENDBRANCH  24  49
BRANCH  21  55
ATOM     55  C   UNK d   0       8.067  10.652 -11.459  0.00  0.00     0.151 C 
BRANCH  55  56
ATOM     56  C   UNK d   0       8.320  11.033 -12.857  0.00  0.00     0.143 C 
ATOM     57  O   UNK d   0       7.483  11.639 -13.554  0.00  0.00    -0.650 OA
BRANCH  56  58
ATOM     58  O   UNK d   0       9.554  10.693 -13.409  0.00  0.00    -0.776 OA
ATOM     59  H   UNK d   0       9.966  11.411 -14.033  0.00  0.00     0.167 HD
ENDBRANCH  56  58
ENDBRANCH  55  56
ENDBRANCH  21  55
BRANCH  18  60
ATOM     60  C   UNK d   0      12.778  11.699  -9.108  0.00  0.00     0.151 C 
BRANCH  60  61
ATOM     61  C   UNK d   0      11.942  10.896  -8.202  0.00  0.00     0.143 C 
ATOM     62  O   UNK d   0      11.732  11.104  -7.007  0.00  0.00    -0.650 OA
BRANCH  61  63
ATOM     63  O   UNK d   0      11.324   9.768  -8.793  0.00  0.00    -0.776 OA
ATOM     64  H   UNK d   0      10.747   9.861  -9.610  0.00  0.00     0.167 HD
ENDBRANCH  61  63
ENDBRANCH  60  61
ENDBRANCH  18  60
BRANCH  14  65
ATOM     65  C   UNK d   0      14.285  13.977  -7.788  0.00  0.00     0.052 C 
BRANCH  65  66
ATOM     66  C   UNK d   0      14.290  13.211  -6.513  0.00  0.00     0.115 C 
BRANCH  66  67
ATOM     67  C   UNK d   0      15.295  12.210  -6.288  0.00  0.00     0.139 C 
ATOM     68  O   UNK d   0      14.979  10.975  -6.458  0.00  0.00    -0.650 OA
BRANCH  67  69
ATOM     69  O   UNK d   0      16.618  12.403  -5.893  0.00  0.00    -0.776 OA
ATOM     70  H   UNK d   0      17.101  13.206  -6.321  0.00  0.00     0.167 HD
ENDBRANCH  67  69
ENDBRANCH  66  67
ENDBRANCH  65  66
ENDBRANCH  14  65
ENDBRANCH   6   7
ENDBRANCH   5   6
ENDBRANCH   2   5
TORSDOF 28
ENDMDL
MODEL 7
REMARK VINA RESULT:      -7.5     18.732     21.987
REMARK  28 active torsions:
REMARK  status: ('A' for Active; 'I' for Inactive)
REMARK    1  A    between atoms: C_2  and  O_3 
REMARK    2  A    between atoms: C_2  and  C_4 
REMARK    3  A    between atoms: C_4  and  C_5 
REMARK    4  A    between atoms: C_5  and  C_6 
REMARK    5  A    between atoms: C_7  and  C_8 
REMARK    6  A    between atoms: C_8  and  C_9 
REMARK    7  A    between atoms: C_9  and  O_11 
REMARK    8  A    between atoms: C_28  and  C_29 
REMARK    9  A    between atoms: C_29  and  C_30 
REMARK   10  A    between atoms: C_30  and  O_32 
REMARK   11  A    between atoms: C_33  and  C_34 
REMARK   12  A    between atoms: C_34  and  C_35 
REMARK   13  A    between atoms: C_35  and  C_36 
REMARK   14  A    between atoms: C_36  and  O_38 
REMARK   15  A    between atoms: C_39  and  C_40 
REMARK   16  A    between atoms: C_40  and  C_41 
REMARK   17  A    between atoms: C_41  and  C_42 
REMARK   18  A    between atoms: C_42  and  O_44 
REMARK   19  A    between atoms: C_45  and  C_46 
REMARK   20  A    between atoms: C_46  and  C_47 
REMARK   21  A    between atoms: C_47  and  O_49 
REMARK   22  A    between atoms: C_50  and  C_51 
REMARK   23  A    between atoms: C_51  and  C_52 
REMARK   24  A    between atoms: C_52  and  O_54 
REMARK   25  A    between atoms: C_55  and  C_56 
REMARK   26  A    between atoms: C_56  and  C_57 
REMARK   27  A    between atoms: C_57  and  C_58 
REMARK   28  A    between atoms: C_58  and  O_60 
ROOT
ATOM      1  O   UNK d   0      -5.875  12.610 -14.536  0.00  0.00    -0.650 OA
ATOM      2  C   UNK d   0      -6.350  11.720 -15.277  0.00  0.00     0.139 C 
ENDROOT
BRANCH   2   3
ATOM      3  O   UNK d   0      -6.307  11.885 -16.640  0.00  0.00    -0.776 OA
ATOM      4  H   UNK d   0      -6.066  11.108 -17.259  0.00  0.00     0.167 HD
ENDBRANCH   2   3
BRANCH   2   5
ATOM      5  C   UNK d   0      -6.955  10.495 -14.682  0.00  0.00     0.115 C 
BRANCH   5   6
ATOM      6  C   UNK d   0      -5.943   9.780 -13.827  0.00  0.00     0.052 C 
BRANCH   6   7
ATOM      7  C   UNK d   0      -4.750   9.300 -14.619  0.00  0.00    -0.020 A 
ATOM      8  C   UNK d   0      -3.502   9.670 -14.484  0.00  0.00    -0.011 A 
ATOM      9  C   UNK d   0      -2.715   8.947 -15.469  0.00  0.00     0.067 A 
ATOM     10  C   UNK d   0      -1.359   8.872 -15.825  0.00  0.00     0.062 C 
ATOM     11  N   UNK d   0      -3.566   8.162 -16.164  0.00  0.00    -0.248 NA
ATOM     12  C   UNK d   0      -0.746   7.901 -16.624  0.00  0.00     0.041 A 
ATOM     13  N   UNK d   0      -1.137   7.324 -17.776  0.00  0.00    -0.355 N 
ATOM     14  C   UNK d   0       0.469   7.336 -16.195  0.00  0.00    -0.022 A 
ATOM     15  C   UNK d   0      -0.206   6.402 -18.085  0.00  0.00     0.042 A 
ATOM     16  H   UNK d   0      -2.044   7.577 -18.369  0.00  0.00     0.166 HD
ATOM     17  C   UNK d   0      -0.123   5.519 -19.181  0.00  0.00     0.062 C 
ATOM     18  C   UNK d   0       0.817   6.380 -17.117  0.00  0.00    -0.013 A 
ATOM     19  C   UNK d   0      -1.105   4.740 -19.736  0.00  0.00     0.067 A 
ATOM     20  N   UNK d   0      -2.358   4.970 -19.336  0.00  0.00    -0.248 NA
ATOM     21  C   UNK d   0      -1.156   3.649 -20.696  0.00  0.00    -0.011 A 
ATOM     22  C   UNK d   0      -3.225   4.108 -19.963  0.00  0.00     0.066 A 
ATOM     23  C   UNK d   0      -4.571   4.263 -19.667  0.00  0.00     0.062 C 
ATOM     24  C   UNK d   0      -2.398   3.281 -20.821  0.00  0.00    -0.020 A 
ATOM     25  C   UNK d   0      -5.168   5.253 -18.872  0.00  0.00     0.041 A 
ATOM     26  N   UNK d   0      -4.787   5.816 -17.719  0.00  0.00    -0.355 N 
ATOM     27  C   UNK d   0      -6.386   5.823 -19.304  0.00  0.00    -0.022 A 
ATOM     28  C   UNK d   0      -5.718   6.729 -17.403  0.00  0.00     0.042 A 
ATOM     29  H   UNK d   0      -3.881   5.553 -17.119  0.00  0.00     0.166 HD
ATOM     30  C   UNK d   0      -5.818   7.607 -16.313  0.00  0.00     0.062 C 
ATOM     31  C   UNK d   0      -6.740   6.758 -18.382  0.00  0.00    -0.013 A 
ATOM     32  C   UNK d   0      -4.805   8.328 -15.700  0.00  0.00     0.066 A 
BRANCH   8  33
ATOM     33  C   UNK d   0      -2.968  10.649 -13.519  0.00  0.00     0.151 C 
BRANCH  33  34
ATOM     34  C   UNK d   0      -2.315  11.797 -14.172  0.00  0.00     0.143 C 
ATOM     35  O   UNK d   0      -1.167  12.141 -13.857  0.00  0.00    -0.650 OA
BRANCH  34  36
ATOM     36  O   UNK d   0      -2.993  12.497 -15.144  0.00  0.00    -0.776 OA
ATOM     37  H   UNK d   0      -2.714  13.452 -15.407  0.00  0.00     0.167 HD
ENDBRANCH  34  36
ENDBRANCH  33  34
ENDBRANCH   8  33
BRANCH  31  38
ATOM     38  C   UNK d   0      -7.968   7.637 -18.430  0.00  0.00     0.151 C 
BRANCH  38  39
ATOM     39  C   UNK d   0      -7.753   8.862 -19.171  0.00  0.00     0.143 C 
ATOM     40  O   UNK d   0      -8.374   9.125 -20.216  0.00  0.00    -0.650 OA
BRANCH  39  41
ATOM     41  O   UNK d   0      -6.821   9.789 -18.708  0.00  0.00    -0.776 OA
ATOM     42  H   UNK d   0      -5.957   9.887 -19.252  0.00  0.00     0.167 HD
ENDBRANCH  39  41
ENDBRANCH  38  39
ENDBRANCH  31  38
BRANCH  27  43
ATOM     43  C   UNK d   0      -7.204   5.515 -20.533  0.00  0.00     0.052 C 
BRANCH  43  44
ATOM     44  C   UNK d   0      -6.799   6.314 -21.729  0.00  0.00     0.115 C 
BRANCH  44  45
ATOM     45  C   UNK d   0      -8.038   6.572 -22.507  0.00  0.00     0.139 C 
ATOM     46  O   UNK d   0      -8.746   5.588 -22.835  0.00  0.00    -0.650 OA
BRANCH  45  47
ATOM     47  O   UNK d   0      -8.440   7.837 -22.876  0.00  0.00    -0.776 OA
ATOM     48  H   UNK d   0      -9.358   8.030 -23.309  0.00  0.00     0.167 HD
ENDBRANCH  45  47
ENDBRANCH  44  45
ENDBRANCH  43  44
ENDBRANCH  27  43
BRANCH  24  49
ATOM     49  C   UNK d   0      -2.907   2.232 -21.721  0.00  0.00     0.052 C 
BRANCH  49  50
ATOM     50  C   UNK d   0      -2.642   0.868 -21.138  0.00  0.00     0.115 C 
BRANCH  50  51
ATOM     51  C   UNK d   0      -3.045   0.646 -19.756  0.00  0.00     0.139 C 
ATOM     52  O   UNK d   0      -2.217   0.460 -18.832  0.00  0.00    -0.650 OA
BRANCH  51  53
ATOM     53  O   UNK d   0      -4.391   0.633 -19.426  0.00  0.00    -0.776 OA
ATOM     54  H   UNK d   0      -5.013   1.229 -19.944  0.00  0.00     0.167 HD
ENDBRANCH  51  53
ENDBRANCH  50  51
ENDBRANCH  49  50
ENDBRANCH  24  49
BRANCH  21  55
ATOM     55  C   UNK d   0       0.042   3.092 -21.390  0.00  0.00     0.151 C 
BRANCH  55  56
ATOM     56  C   UNK d   0       0.863   2.263 -20.494  0.00  0.00     0.143 C 
ATOM     57  O   UNK d   0       0.642   1.051 -20.304  0.00  0.00    -0.650 OA
BRANCH  56  58
ATOM     58  O   UNK d   0       1.929   2.877 -19.838  0.00  0.00    -0.776 OA
ATOM     59  H   UNK d   0       2.076   2.568 -18.860  0.00  0.00     0.167 HD
ENDBRANCH  56  58
ENDBRANCH  55  56
ENDBRANCH  21  55
BRANCH  18  60
ATOM     60  C   UNK d   0       2.053   5.518 -17.045  0.00  0.00     0.151 C 
BRANCH  60  61
ATOM     61  C   UNK d   0       1.620   4.241 -16.458  0.00  0.00     0.143 C 
ATOM     62  O   UNK d   0       1.510   3.158 -17.034  0.00  0.00    -0.650 OA
BRANCH  61  63
ATOM     63  O   UNK d   0       1.303   4.288 -15.079  0.00  0.00    -0.776 OA
ATOM     64  H   UNK d   0       0.482   4.766 -14.752  0.00  0.00     0.167 HD
ENDBRANCH  61  63
ENDBRANCH  60  61
ENDBRANCH  18  60
BRANCH  14  65
ATOM     65  C   UNK d   0       1.367   7.695 -15.045  0.00  0.00     0.052 C 
BRANCH  65  66
ATOM     66  C   UNK d   0       2.346   8.763 -15.383  0.00  0.00     0.115 C 
BRANCH  66  67
ATOM     67  C   UNK d   0       3.749   8.459 -15.415  0.00  0.00     0.139 C 
ATOM     68  O   UNK d   0       4.327   8.347 -16.558  0.00  0.00    -0.650 OA
BRANCH  67  69
ATOM     69  O   UNK d   0       4.603   8.259 -14.331  0.00  0.00    -0.776 OA
ATOM     70  H   UNK d   0       5.571   7.997 -14.567  0.00  0.00     0.167 HD
ENDBRANCH  67  69
ENDBRANCH  66  67
ENDBRANCH  65  66
ENDBRANCH  14  65
ENDBRANCH   6   7
ENDBRANCH   5   6
ENDBRANCH   2   5
TORSDOF 28
ENDMDL
MODEL 8
REMARK VINA RESULT:      -7.4     18.398     22.352
REMARK  28 active torsions:
REMARK  status: ('A' for Active; 'I' for Inactive)
REMARK    1  A    between atoms: C_2  and  O_3 
REMARK    2  A    between atoms: C_2  and  C_4 
REMARK    3  A    between atoms: C_4  and  C_5 
REMARK    4  A    between atoms: C_5  and  C_6 
REMARK    5  A    between atoms: C_7  and  C_8 
REMARK    6  A    between atoms: C_8  and  C_9 
REMARK    7  A    between atoms: C_9  and  O_11 
REMARK    8  A    between atoms: C_28  and  C_29 
REMARK    9  A    between atoms: C_29  and  C_30 
REMARK   10  A    between atoms: C_30  and  O_32 
REMARK   11  A    between atoms: C_33  and  C_34 
REMARK   12  A    between atoms: C_34  and  C_35 
REMARK   13  A    between atoms: C_35  and  C_36 
REMARK   14  A    between atoms: C_36  and  O_38 
REMARK   15  A    between atoms: C_39  and  C_40 
REMARK   16  A    between atoms: C_40  and  C_41 
REMARK   17  A    between atoms: C_41  and  C_42 
REMARK   18  A    between atoms: C_42  and  O_44 
REMARK   19  A    between atoms: C_45  and  C_46 
REMARK   20  A    between atoms: C_46  and  C_47 
REMARK   21  A    between atoms: C_47  and  O_49 
REMARK   22  A    between atoms: C_50  and  C_51 
REMARK   23  A    between atoms: C_51  and  C_52 
REMARK   24  A    between atoms: C_52  and  O_54 
REMARK   25  A    between atoms: C_55  and  C_56 
REMARK   26  A    between atoms: C_56  and  C_57 
REMARK   27  A    between atoms: C_57  and  C_58 
REMARK   28  A    between atoms: C_58  and  O_60 
ROOT
ATOM      1  O   UNK d   0       0.002  14.025 -14.652  0.00  0.00    -0.650 OA
ATOM      2  C   UNK d   0      -0.408  12.847 -14.751  0.00  0.00     0.139 C 
ENDROOT
BRANCH   2   3
ATOM      3  O   UNK d   0       0.461  11.809 -14.510  0.00  0.00    -0.776 OA
ATOM      4  H   UNK d   0       0.358  11.217 -13.683  0.00  0.00     0.167 HD
ENDBRANCH   2   3
BRANCH   2   5
ATOM      5  C   UNK d   0      -1.824  12.576 -15.127  0.00  0.00     0.115 C 
BRANCH   5   6
ATOM      6  C   UNK d   0      -2.437  11.596 -14.164  0.00  0.00     0.052 C 
BRANCH   6   7
ATOM      7  C   UNK d   0      -3.182  10.483 -14.863  0.00  0.00    -0.020 A 
ATOM      8  C   UNK d   0      -4.474  10.281 -14.888  0.00  0.00    -0.011 A 
ATOM      9  C   UNK d   0      -4.722   9.085 -15.676  0.00  0.00     0.067 A 
ATOM     10  C   UNK d   0      -5.851   8.362 -16.093  0.00  0.00     0.062 C 
ATOM     11  N   UNK d   0      -3.523   8.621 -16.087  0.00  0.00    -0.248 NA
ATOM     12  C   UNK d   0      -5.909   7.382 -17.089  0.00  0.00     0.041 A 
ATOM     13  N   UNK d   0      -5.081   6.360 -17.377  0.00  0.00    -0.355 N 
ATOM     14  C   UNK d   0      -6.954   7.429 -18.030  0.00  0.00    -0.022 A 
ATOM     15  C   UNK d   0      -5.568   5.763 -18.481  0.00  0.00     0.042 A 
ATOM     16  H   UNK d   0      -4.180   6.055 -16.800  0.00  0.00     0.166 HD
ATOM     17  C   UNK d   0      -5.093   4.650 -19.203  0.00  0.00     0.062 C 
ATOM     18  C   UNK d   0      -6.742   6.406 -18.920  0.00  0.00    -0.013 A 
ATOM     19  C   UNK d   0      -3.810   4.356 -19.589  0.00  0.00     0.067 A 
ATOM     20  N   UNK d   0      -2.835   5.099 -19.060  0.00  0.00    -0.248 NA
ATOM     21  C   UNK d   0      -3.182   3.402 -20.487  0.00  0.00    -0.011 A 
ATOM     22  C   UNK d   0      -1.615   4.701 -19.549  0.00  0.00     0.066 A 
ATOM     23  C   UNK d   0      -0.504   5.367 -19.052  0.00  0.00     0.062 C 
ATOM     24  C   UNK d   0      -1.898   3.611 -20.462  0.00  0.00    -0.020 A 
ATOM     25  C   UNK d   0      -0.466   6.340 -18.041  0.00  0.00     0.041 A 
ATOM     26  N   UNK d   0      -1.281   7.365 -17.764  0.00  0.00    -0.355 N 
ATOM     27  C   UNK d   0       0.581   6.290 -17.095  0.00  0.00    -0.022 A 
ATOM     28  C   UNK d   0      -0.792   7.968 -16.669  0.00  0.00     0.042 A 
ATOM     29  H   UNK d   0      -2.180   7.677 -18.351  0.00  0.00     0.166 HD
ATOM     30  C   UNK d   0      -1.249   9.081 -15.946  0.00  0.00     0.062 C 
ATOM     31  C   UNK d   0       0.382   7.315 -16.222  0.00  0.00    -0.013 A 
ATOM     32  C   UNK d   0      -2.556   9.418 -15.631  0.00  0.00     0.066 A 
BRANCH   8  33
ATOM     33  C   UNK d   0      -5.512  11.102 -14.237  0.00  0.00     0.151 C 
BRANCH  33  34
ATOM     34  C   UNK d   0      -6.039  10.484 -13.007  0.00  0.00     0.143 C 
ATOM     35  O   UNK d   0      -7.176   9.991 -12.979  0.00  0.00    -0.650 OA
BRANCH  34  36
ATOM     36  O   UNK d   0      -5.257  10.456 -11.875  0.00  0.00    -0.776 OA
ATOM     37  H   UNK d   0      -4.356   9.959 -11.861  0.00  0.00     0.167 HD
ENDBRANCH  34  36
ENDBRANCH  33  34
ENDBRANCH   8  33
BRANCH  31  38
ATOM     38  C   UNK d   0       1.245   7.649 -15.028  0.00  0.00     0.151 C 
BRANCH  38  39
ATOM     39  C   UNK d   0       2.289   8.602 -15.339  0.00  0.00     0.143 C 
ATOM     40  O   UNK d   0       2.049   9.709 -15.851  0.00  0.00    -0.650 OA
BRANCH  39  41
ATOM     41  O   UNK d   0       3.617   8.280 -15.059  0.00  0.00    -0.776 OA
ATOM     42  H   UNK d   0       4.115   7.724 -15.761  0.00  0.00     0.167 HD
ENDBRANCH  39  41
ENDBRANCH  38  39
ENDBRANCH  31  38
BRANCH  27  43
ATOM     43  C   UNK d   0       1.736   5.325 -16.994  0.00  0.00     0.052 C 
BRANCH  43  44
ATOM     44  C   UNK d   0       2.853   5.642 -17.935  0.00  0.00     0.115 C 
BRANCH  44  45
ATOM     45  C   UNK d   0       4.024   6.007 -17.096  0.00  0.00     0.139 C 
ATOM     46  O   UNK d   0       4.797   6.903 -17.516  0.00  0.00    -0.650 OA
BRANCH  45  47
ATOM     47  O   UNK d   0       4.289   5.411 -15.882  0.00  0.00    -0.776 OA
ATOM     48  H   UNK d   0       4.426   5.949 -15.011  0.00  0.00     0.167 HD
ENDBRANCH  45  47
ENDBRANCH  44  45
ENDBRANCH  43  44
ENDBRANCH  27  43
BRANCH  24  49
ATOM     49  C   UNK d   0      -0.878   2.843 -21.197  0.00  0.00     0.052 C 
BRANCH  49  50
ATOM     50  C   UNK d   0      -0.171   1.888 -20.269  0.00  0.00     0.115 C 
BRANCH  50  51
ATOM     51  C   UNK d   0       1.284   1.870 -20.316  0.00  0.00     0.139 C 
ATOM     52  O   UNK d   0       1.990   2.755 -19.776  0.00  0.00    -0.650 OA
BRANCH  51  53
ATOM     53  O   UNK d   0       1.937   0.845 -20.983  0.00  0.00    -0.776 OA
ATOM     54  H   UNK d   0       1.571  -0.087 -20.896  0.00  0.00     0.167 HD
ENDBRANCH  51  53
ENDBRANCH  50  51
ENDBRANCH  49  50
ENDBRANCH  24  49
BRANCH  21  55
ATOM     55  C   UNK d   0      -3.931   2.377 -21.273  0.00  0.00     0.151 C 
BRANCH  55  56
ATOM     56  C   UNK d   0      -3.862   1.046 -20.651  0.00  0.00     0.143 C 
ATOM     57  O   UNK d   0      -3.544   0.020 -21.284  0.00  0.00    -0.650 OA
BRANCH  56  58
ATOM     58  O   UNK d   0      -4.167   0.946 -19.294  0.00  0.00    -0.776 OA
ATOM     59  H   UNK d   0      -5.100   1.311 -19.029  0.00  0.00     0.167 HD
ENDBRANCH  56  58
ENDBRANCH  55  56
ENDBRANCH  21  55
BRANCH  18  60
ATOM     60  C   UNK d   0      -7.624   6.093 -20.103  0.00  0.00     0.151 C 
BRANCH  60  61
ATOM     61  C   UNK d   0      -7.162   6.966 -21.193  0.00  0.00     0.143 C 
ATOM     62  O   UNK d   0      -5.996   7.213 -21.502  0.00  0.00    -0.650 OA
BRANCH  61  63
ATOM     63  O   UNK d   0      -8.188   7.574 -21.954  0.00  0.00    -0.776 OA
ATOM     64  H   UNK d   0      -9.113   7.183 -21.984  0.00  0.00     0.167 HD
ENDBRANCH  61  63
ENDBRANCH  60  61
ENDBRANCH  18  60
BRANCH  14  65
ATOM     65  C   UNK d   0      -8.178   8.298 -18.094  0.00  0.00     0.052 C 
BRANCH  65  66
ATOM     66  C   UNK d   0      -7.937   9.592 -18.788  0.00  0.00     0.115 C 
BRANCH  66  67
ATOM     67  C   UNK d   0      -8.270  10.825 -18.131  0.00  0.00     0.139 C 
ATOM     68  O   UNK d   0      -8.454  11.874 -18.851  0.00  0.00    -0.650 OA
BRANCH  67  69
ATOM     69  O   UNK d   0      -8.427  11.047 -16.763  0.00  0.00    -0.776 OA
ATOM     70  H   UNK d   0      -8.227  10.242 -16.152  0.00  0.00     0.167 HD
ENDBRANCH  67  69
ENDBRANCH  66  67
ENDBRANCH  65  66
ENDBRANCH  14  65
ENDBRANCH   6   7
ENDBRANCH   5   6
ENDBRANCH   2   5
TORSDOF 28
ENDMDL
MODEL 9
REMARK VINA RESULT:      -7.4      8.761     14.435
REMARK  28 active torsions:
REMARK  status: ('A' for Active; 'I' for Inactive)
REMARK    1  A    between atoms: C_2  and  O_3 
REMARK    2  A    between atoms: C_2  and  C_4 
REMARK    3  A    between atoms: C_4  and  C_5 
REMARK    4  A    between atoms: C_5  and  C_6 
REMARK    5  A    between atoms: C_7  and  C_8 
REMARK    6  A    between atoms: C_8  and  C_9 
REMARK    7  A    between atoms: C_9  and  O_11 
REMARK    8  A    between atoms: C_28  and  C_29 
REMARK    9  A    between atoms: C_29  and  C_30 
REMARK   10  A    between atoms: C_30  and  O_32 
REMARK   11  A    between atoms: C_33  and  C_34 
REMARK   12  A    between atoms: C_34  and  C_35 
REMARK   13  A    between atoms: C_35  and  C_36 
REMARK   14  A    between atoms: C_36  and  O_38 
REMARK   15  A    between atoms: C_39  and  C_40 
REMARK   16  A    between atoms: C_40  and  C_41 
REMARK   17  A    between atoms: C_41  and  C_42 
REMARK   18  A    between atoms: C_42  and  O_44 
REMARK   19  A    between atoms: C_45  and  C_46 
REMARK   20  A    between atoms: C_46  and  C_47 
REMARK   21  A    between atoms: C_47  and  O_49 
REMARK   22  A    between atoms: C_50  and  C_51 
REMARK   23  A    between atoms: C_51  and  C_52 
REMARK   24  A    between atoms: C_52  and  O_54 
REMARK   25  A    between atoms: C_55  and  C_56 
REMARK   26  A    between atoms: C_56  and  C_57 
REMARK   27  A    between atoms: C_57  and  C_58 
REMARK   28  A    between atoms: C_58  and  O_60 
ROOT
ATOM      1  O   UNK d   0      17.157  18.993 -10.520  0.00  0.00    -0.650 OA
ATOM      2  C   UNK d   0      17.976  19.321  -9.633  0.00  0.00     0.139 C 
ENDROOT
BRANCH   2   3
ATOM      3  O   UNK d   0      19.029  18.486  -9.347  0.00  0.00    -0.776 OA
ATOM      4  H   UNK d   0      18.938  17.742  -8.652  0.00  0.00     0.167 HD
ENDBRANCH   2   3
BRANCH   2   5
ATOM      5  C   UNK d   0      17.807  20.606  -8.897  0.00  0.00     0.115 C 
BRANCH   5   6
ATOM      6  C   UNK d   0      18.097  20.406  -7.434  0.00  0.00     0.052 C 
BRANCH   6   7
ATOM      7  C   UNK d   0      16.867  20.556  -6.572  0.00  0.00    -0.020 A 
ATOM      8  C   UNK d   0      16.678  21.402  -5.592  0.00  0.00    -0.011 A 
ATOM      9  C   UNK d   0      15.348  21.169  -5.053  0.00  0.00     0.067 A 
ATOM     10  C   UNK d   0      14.552  21.730  -4.043  0.00  0.00     0.062 C 
ATOM     11  N   UNK d   0      14.800  20.159  -5.762  0.00  0.00    -0.248 NA
ATOM     12  C   UNK d   0      13.177  21.555  -3.851  0.00  0.00     0.041 A 
ATOM     13  N   UNK d   0      12.405  20.453  -3.924  0.00  0.00    -0.355 N 
ATOM     14  C   UNK d   0      12.378  22.681  -3.585  0.00  0.00    -0.022 A 
ATOM     15  C   UNK d   0      11.136  20.854  -3.719  0.00  0.00     0.042 A 
ATOM     16  H   UNK d   0      12.753  19.411  -4.097  0.00  0.00     0.166 HD
ATOM     17  C   UNK d   0       9.938  20.112  -3.688  0.00  0.00     0.062 C 
ATOM     18  C   UNK d   0      11.079  22.244  -3.504  0.00  0.00    -0.013 A 
ATOM     19  C   UNK d   0       9.510  19.130  -4.545  0.00  0.00     0.067 A 
ATOM     20  N   UNK d   0      10.403  18.655  -5.416  0.00  0.00    -0.248 NA
ATOM     21  C   UNK d   0       8.260  18.429  -4.788  0.00  0.00    -0.011 A 
ATOM     22  C   UNK d   0       9.829  17.695  -6.212  0.00  0.00     0.066 A 
ATOM     23  C   UNK d   0      10.659  17.087  -7.142  0.00  0.00     0.062 C 
ATOM     24  C   UNK d   0       8.452  17.594  -5.768  0.00  0.00    -0.020 A 
ATOM     25  C   UNK d   0      12.041  17.268  -7.309  0.00  0.00     0.041 A 
ATOM     26  N   UNK d   0      12.806  18.365  -7.252  0.00  0.00    -0.355 N 
ATOM     27  C   UNK d   0      12.843  16.136  -7.572  0.00  0.00    -0.022 A 
ATOM     28  C   UNK d   0      14.071  17.970  -7.465  0.00  0.00     0.042 A 
ATOM     29  H   UNK d   0      12.454  19.413  -7.088  0.00  0.00     0.166 HD
ATOM     30  C   UNK d   0      15.271  18.698  -7.507  0.00  0.00     0.062 C 
ATOM     31  C   UNK d   0      14.129  16.571  -7.671  0.00  0.00    -0.013 A 
ATOM     32  C   UNK d   0      15.663  19.747  -6.692  0.00  0.00     0.066 A 
BRANCH   8  33
ATOM     33  C   UNK d   0      17.630  22.414  -5.100  0.00  0.00     0.151 C 
BRANCH  33  34
ATOM     34  C   UNK d   0      18.430  21.938  -3.957  0.00  0.00     0.143 C 
ATOM     35  O   UNK d   0      19.598  21.553  -4.113  0.00  0.00    -0.650 OA
BRANCH  34  36
ATOM     36  O   UNK d   0      17.869  21.919  -2.701  0.00  0.00    -0.776 OA
ATOM     37  H   UNK d   0      17.502  21.049  -2.293  0.00  0.00     0.167 HD
ENDBRANCH  34  36
ENDBRANCH  33  34
ENDBRANCH   8  33
BRANCH  31  38
ATOM     38  C   UNK d   0      15.343  15.711  -7.932  0.00  0.00     0.151 C 
BRANCH  38  39
ATOM     39  C   UNK d   0      15.872  15.877  -9.269  0.00  0.00     0.143 C 
ATOM     40  O   UNK d   0      15.138  15.963 -10.269  0.00  0.00    -0.650 OA
BRANCH  39  41
ATOM     41  O   UNK d   0      17.252  15.944  -9.458  0.00  0.00    -0.776 OA
ATOM     42  H   UNK d   0      17.836  15.895  -8.617  0.00  0.00     0.167 HD
ENDBRANCH  39  41
ENDBRANCH  38  39
ENDBRANCH  31  38
BRANCH  27  43
ATOM     43  C   UNK d   0      12.440  14.692  -7.730  0.00  0.00     0.052 C 
BRANCH  43  44
ATOM     44  C   UNK d   0      11.955  14.361  -9.104  0.00  0.00     0.115 C 
BRANCH  44  45
ATOM     45  C   UNK d   0      10.994  13.237  -8.956  0.00  0.00     0.139 C 
ATOM     46  O   UNK d   0      10.191  13.017  -9.896  0.00  0.00    -0.650 OA
BRANCH  45  47
ATOM     47  O   UNK d   0      10.953  12.431  -7.839  0.00  0.00    -0.776 OA
ATOM     48  H   UNK d   0      10.185  12.467  -7.149  0.00  0.00     0.167 HD
ENDBRANCH  45  47
ENDBRANCH  44  45
ENDBRANCH  43  44
ENDBRANCH  27  43
BRANCH  24  49
ATOM     49  C   UNK d   0       7.459  16.654  -6.315  0.00  0.00     0.052 C 
BRANCH  49  50
ATOM     50  C   UNK d   0       7.801  15.240  -5.920  0.00  0.00     0.115 C 
BRANCH  50  51
ATOM     51  C   UNK d   0       8.048  14.290  -6.997  0.00  0.00     0.139 C 
ATOM     52  O   UNK d   0       8.213  13.064  -6.792  0.00  0.00    -0.650 OA
BRANCH  51  53
ATOM     53  O   UNK d   0       8.109  14.738  -8.307  0.00  0.00    -0.776 OA
ATOM     54  H   UNK d   0       7.461  14.354  -8.972  0.00  0.00     0.167 HD
ENDBRANCH  51  53
ENDBRANCH  50  51
ENDBRANCH  49  50
ENDBRANCH  24  49
BRANCH  21  55
ATOM     55  C   UNK d   0       7.006  18.664  -4.014  0.00  0.00     0.151 C 
BRANCH  55  56
ATOM     56  C   UNK d   0       7.147  18.271  -2.603  0.00  0.00     0.143 C 
ATOM     57  O   UNK d   0       7.415  19.087  -1.699  0.00  0.00    -0.650 OA
BRANCH  56  58
ATOM     58  O   UNK d   0       6.971  16.926  -2.283  0.00  0.00    -0.776 OA
ATOM     59  H   UNK d   0       6.286  16.744  -1.527  0.00  0.00     0.167 HD
ENDBRANCH  56  58
ENDBRANCH  55  56
ENDBRANCH  21  55
BRANCH  18  60
ATOM     60  C   UNK d   0       9.885  23.127  -3.238  0.00  0.00     0.151 C 
BRANCH  60  61
ATOM     61  C   UNK d   0       9.609  23.011  -1.798  0.00  0.00     0.143 C 
ATOM     62  O   UNK d   0      10.151  23.635  -0.886  0.00  0.00    -0.650 OA
BRANCH  61  63
ATOM     63  O   UNK d   0       8.607  22.073  -1.451  0.00  0.00    -0.776 OA
ATOM     64  H   UNK d   0       8.845  21.128  -1.203  0.00  0.00     0.167 HD
ENDBRANCH  61  63
ENDBRANCH  60  61
ENDBRANCH  18  60
BRANCH  14  65
ATOM     65  C   UNK d   0      12.755  24.109  -3.308  0.00  0.00     0.052 C 
BRANCH  65  66
ATOM     66  C   UNK d   0      12.936  24.914  -4.546  0.00  0.00     0.115 C 
BRANCH  66  67
ATOM     67  C   UNK d   0      14.259  25.250  -4.989  0.00  0.00     0.139 C 
ATOM     68  O   UNK d   0      14.711  24.690  -6.055  0.00  0.00    -0.650 OA
BRANCH  67  69
ATOM     69  O   UNK d   0      15.158  26.137  -4.397  0.00  0.00    -0.776 OA
ATOM     70  H   UNK d   0      16.136  26.061  -4.712  0.00  0.00     0.167 HD
ENDBRANCH  67  69
ENDBRANCH  66  67
ENDBRANCH  65  66
ENDBRANCH  14  65
ENDBRANCH   6   7
ENDBRANCH   5   6
ENDBRANCH   2   5
TORSDOF 28
ENDMDL
MODEL 10
REMARK VINA RESULT:      -7.4      7.153     11.887
REMARK  28 active torsions:
REMARK  status: ('A' for Active; 'I' for Inactive)
REMARK    1  A    between atoms: C_2  and  O_3 
REMARK    2  A    between atoms: C_2  and  C_4 
REMARK    3  A    between atoms: C_4  and  C_5 
REMARK    4  A    between atoms: C_5  and  C_6 
REMARK    5  A    between atoms: C_7  and  C_8 
REMARK    6  A    between atoms: C_8  and  C_9 
REMARK    7  A    between atoms: C_9  and  O_11 
REMARK    8  A    between atoms: C_28  and  C_29 
REMARK    9  A    between atoms: C_29  and  C_30 
REMARK   10  A    between atoms: C_30  and  O_32 
REMARK   11  A    between atoms: C_33  and  C_34 
REMARK   12  A    between atoms: C_34  and  C_35 
REMARK   13  A    between atoms: C_35  and  C_36 
REMARK   14  A    between atoms: C_36  and  O_38 
REMARK   15  A    between atoms: C_39  and  C_40 
REMARK   16  A    between atoms: C_40  and  C_41 
REMARK   17  A    between atoms: C_41  and  C_42 
REMARK   18  A    between atoms: C_42  and  O_44 
REMARK   19  A    between atoms: C_45  and  C_46 
REMARK   20  A    between atoms: C_46  and  C_47 
REMARK   21  A    between atoms: C_47  and  O_49 
REMARK   22  A    between atoms: C_50  and  C_51 
REMARK   23  A    between atoms: C_51  and  C_52 
REMARK   24  A    between atoms: C_52  and  O_54 
REMARK   25  A    between atoms: C_55  and  C_56 
REMARK   26  A    between atoms: C_56  and  C_57 
REMARK   27  A    between atoms: C_57  and  C_58 
REMARK   28  A    between atoms: C_58  and  O_60 
ROOT
ATOM      1  O   UNK d   0       7.480  20.081  -3.575  0.00  0.00    -0.650 OA
ATOM      2  C   UNK d   0       8.250  19.444  -2.822  0.00  0.00     0.139 C 
ENDROOT
BRANCH   2   3
ATOM      3  O   UNK d   0       7.743  18.832  -1.702  0.00  0.00    -0.776 OA
ATOM      4  H   UNK d   0       7.126  18.020  -1.777  0.00  0.00     0.167 HD
ENDBRANCH   2   3
BRANCH   2   5
ATOM      5  C   UNK d   0       9.703  19.353  -3.143  0.00  0.00     0.115 C 
BRANCH   5   6
ATOM      6  C   UNK d   0       9.967  19.911  -4.515  0.00  0.00     0.052 C 
BRANCH   6   7
ATOM      7  C   UNK d   0      10.322  18.841  -5.519  0.00  0.00    -0.020 A 
ATOM      8  C   UNK d   0      11.514  18.512  -5.948  0.00  0.00    -0.011 A 
ATOM      9  C   UNK d   0      11.359  17.436  -6.912  0.00  0.00     0.067 A 
ATOM     10  C   UNK d   0      12.216  16.648  -7.696  0.00  0.00     0.062 C 
ATOM     11  N   UNK d   0      10.038  17.176  -7.014  0.00  0.00    -0.248 NA
ATOM     12  C   UNK d   0      11.899  15.461  -8.366  0.00  0.00     0.041 A 
ATOM     13  N   UNK d   0      10.822  15.116  -9.097  0.00  0.00    -0.355 N 
ATOM     14  C   UNK d   0      12.779  14.368  -8.266  0.00  0.00    -0.022 A 
ATOM     15  C   UNK d   0      10.993  13.829  -9.457  0.00  0.00     0.042 A 
ATOM     16  H   UNK d   0       9.968  15.774  -9.369  0.00  0.00     0.166 HD
ATOM     17  C   UNK d   0      10.172  12.979 -10.224  0.00  0.00     0.062 C 
ATOM     18  C   UNK d   0      12.208  13.326  -8.954  0.00  0.00    -0.013 A 
ATOM     19  C   UNK d   0       8.814  12.799 -10.155  0.00  0.00     0.067 A 
ATOM     20  N   UNK d   0       8.125  13.668  -9.411  0.00  0.00    -0.248 NA
ATOM     21  C   UNK d   0       7.857  11.848 -10.697  0.00  0.00    -0.011 A 
ATOM     22  C   UNK d   0       6.788  13.354  -9.425  0.00  0.00     0.066 A 
ATOM     23  C   UNK d   0       5.948  14.202  -8.719  0.00  0.00     0.062 C 
ATOM     24  C   UNK d   0       6.675  12.176 -10.263  0.00  0.00    -0.020 A 
ATOM     25  C   UNK d   0       6.284  15.397  -8.065  0.00  0.00     0.041 A 
ATOM     26  N   UNK d   0       7.347  15.735  -7.325  0.00  0.00    -0.355 N 
ATOM     27  C   UNK d   0       5.403  16.495  -8.169  0.00  0.00    -0.022 A 
ATOM     28  C   UNK d   0       7.176  17.015  -6.958  0.00  0.00     0.042 A 
ATOM     29  H   UNK d   0       8.200  15.070  -7.043  0.00  0.00     0.166 HD
ATOM     30  C   UNK d   0       7.979  17.870  -6.187  0.00  0.00     0.062 C 
ATOM     31  C   UNK d   0       5.959  17.523  -7.472  0.00  0.00    -0.013 A 
ATOM     32  C   UNK d   0       9.360  17.987  -6.200  0.00  0.00     0.066 A 
BRANCH   8  33
ATOM     33  C   UNK d   0      12.797  19.116  -5.543  0.00  0.00     0.151 C 
BRANCH  33  34
ATOM     34  C   UNK d   0      13.141  20.310  -6.336  0.00  0.00     0.143 C 
ATOM     35  O   UNK d   0      13.447  20.213  -7.533  0.00  0.00    -0.650 OA
BRANCH  34  36
ATOM     36  O   UNK d   0      13.122  21.548  -5.736  0.00  0.00    -0.776 OA
ATOM     37  H   UNK d   0      13.008  21.646  -4.717  0.00  0.00     0.167 HD
ENDBRANCH  34  36
ENDBRANCH  33  34
ENDBRANCH   8  33
BRANCH  31  38
ATOM     38  C   UNK d   0       5.380  18.910  -7.314  0.00  0.00     0.151 C 
BRANCH  38  39
ATOM     39  C   UNK d   0       5.930  19.859  -8.258  0.00  0.00     0.143 C 
ATOM     40  O   UNK d   0       6.270  19.533  -9.409  0.00  0.00    -0.650 OA
BRANCH  39  41
ATOM     41  O   UNK d   0       6.089  21.191  -7.878  0.00  0.00    -0.776 OA
ATOM     42  H   UNK d   0       5.449  21.546  -7.160  0.00  0.00     0.167 HD
ENDBRANCH  39  41
ENDBRANCH  38  39
ENDBRANCH  31  38
BRANCH  27  43
ATOM     43  C   UNK d   0       4.081  16.598  -8.888  0.00  0.00     0.052 C 
BRANCH  43  44
ATOM     44  C   UNK d   0       2.923  16.133  -8.066  0.00  0.00     0.115 C 
BRANCH  44  45
ATOM     45  C   UNK d   0       2.110  15.247  -8.940  0.00  0.00     0.139 C 
ATOM     46  O   UNK d   0       2.587  14.915 -10.053  0.00  0.00    -0.650 OA
BRANCH  45  47
ATOM     47  O   UNK d   0       0.867  14.777  -8.578  0.00  0.00    -0.776 OA
ATOM     48  H   UNK d   0       0.633  14.498  -7.611  0.00  0.00     0.167 HD
ENDBRANCH  45  47
ENDBRANCH  44  45
ENDBRANCH  43  44
ENDBRANCH  27  43
BRANCH  24  49
ATOM     49  C   UNK d   0       5.409  11.502 -10.598  0.00  0.00     0.052 C 
BRANCH  49  50
ATOM     50  C   UNK d   0       4.629  12.317 -11.598  0.00  0.00     0.115 C 
BRANCH  50  51
ATOM     51  C   UNK d   0       4.076  11.611 -12.745  0.00  0.00     0.139 C 
ATOM     52  O   UNK d   0       4.708  10.720 -13.360  0.00  0.00    -0.650 OA
BRANCH  51  53
ATOM     53  O   UNK d   0       2.802  11.923 -13.194  0.00  0.00    -0.776 OA
ATOM     54  H   UNK d   0       2.457  11.450 -14.011  0.00  0.00     0.167 HD
ENDBRANCH  51  53
ENDBRANCH  50  51
ENDBRANCH  49  50
ENDBRANCH  24  49
BRANCH  21  55
ATOM     55  C   UNK d   0       8.225  10.714 -11.595  0.00  0.00     0.151 C 
BRANCH  55  56
ATOM     56  C   UNK d   0       8.451  11.158 -12.979  0.00  0.00     0.143 C 
ATOM     57  O   UNK d   0       7.697  11.962 -13.562  0.00  0.00    -0.650 OA
BRANCH  56  58
ATOM     58  O   UNK d   0       9.560  10.647 -13.652  0.00  0.00    -0.776 OA
ATOM     59  H   UNK d   0      10.156  11.358 -14.112  0.00  0.00     0.167 HD
ENDBRANCH  56  58
ENDBRANCH  55  56
ENDBRANCH  21  55
BRANCH  18  60
ATOM     60  C   UNK d   0      12.812  11.951  -9.098  0.00  0.00     0.151 C 
BRANCH  60  61
ATOM     61  C   UNK d   0      12.141  11.108  -8.097  0.00  0.00     0.143 C 
ATOM     62  O   UNK d   0      12.135  11.268  -6.876  0.00  0.00    -0.650 OA
BRANCH  61  63
ATOM     63  O   UNK d   0      11.431  10.001  -8.620  0.00  0.00    -0.776 OA
ATOM     64  H   UNK d   0      10.442   9.903  -8.473  0.00  0.00     0.167 HD
ENDBRANCH  61  63
ENDBRANCH  60  61
ENDBRANCH  18  60
BRANCH  14  65
ATOM     65  C   UNK d   0      14.149  14.264  -7.659  0.00  0.00     0.052 C 
BRANCH  65  66
ATOM     66  C   UNK d   0      15.200  14.925  -8.479  0.00  0.00     0.115 C 
BRANCH  66  67
ATOM     67  C   UNK d   0      15.105  14.901  -9.911  0.00  0.00     0.139 C 
ATOM     68  O   UNK d   0      15.559  13.875 -10.539  0.00  0.00    -0.650 OA
BRANCH  67  69
ATOM     69  O   UNK d   0      14.567  15.879 -10.747  0.00  0.00    -0.776 OA
ATOM     70  H   UNK d   0      14.179  15.541 -11.640  0.00  0.00     0.167 HD
ENDBRANCH  67  69
ENDBRANCH  66  67
ENDBRANCH  65  66
ENDBRANCH  14  65
ENDBRANCH   6   7
ENDBRANCH   5   6
ENDBRANCH   2   5
TORSDOF 28
ENDMDL
MODEL 11
REMARK VINA RESULT:      -7.4     20.811     24.627
REMARK  28 active torsions:
REMARK  status: ('A' for Active; 'I' for Inactive)
REMARK    1  A    between atoms: C_2  and  O_3 
REMARK    2  A    between atoms: C_2  and  C_4 
REMARK    3  A    between atoms: C_4  and  C_5 
REMARK    4  A    between atoms: C_5  and  C_6 
REMARK    5  A    between atoms: C_7  and  C_8 
REMARK    6  A    between atoms: C_8  and  C_9 
REMARK    7  A    between atoms: C_9  and  O_11 
REMARK    8  A    between atoms: C_28  and  C_29 
REMARK    9  A    between atoms: C_29  and  C_30 
REMARK   10  A    between atoms: C_30  and  O_32 
REMARK   11  A    between atoms: C_33  and  C_34 
REMARK   12  A    between atoms: C_34  and  C_35 
REMARK   13  A    between atoms: C_35  and  C_36 
REMARK   14  A    between atoms: C_36  and  O_38 
REMARK   15  A    between atoms: C_39  and  C_40 
REMARK   16  A    between atoms: C_40  and  C_41 
REMARK   17  A    between atoms: C_41  and  C_42 
REMARK   18  A    between atoms: C_42  and  O_44 
REMARK   19  A    between atoms: C_45  and  C_46 
REMARK   20  A    between atoms: C_46  and  C_47 
REMARK   21  A    between atoms: C_47  and  O_49 
REMARK   22  A    between atoms: C_50  and  C_51 
REMARK   23  A    between atoms: C_51  and  C_52 
REMARK   24  A    between atoms: C_52  and  O_54 
REMARK   25  A    between atoms: C_55  and  C_56 
REMARK   26  A    between atoms: C_56  and  C_57 
REMARK   27  A    between atoms: C_57  and  C_58 
REMARK   28  A    between atoms: C_58  and  O_60 
ROOT
ATOM      1  O   UNK d   0      -7.941   4.825 -24.508  0.00  0.00    -0.650 OA
ATOM      2  C   UNK d   0      -8.925   4.192 -24.064  0.00  0.00     0.139 C 
ENDROOT
BRANCH   2   3
ATOM      3  O   UNK d   0     -10.191   4.556 -24.454  0.00  0.00    -0.776 OA
ATOM      4  H   UNK d   0     -11.012   4.044 -24.124  0.00  0.00     0.167 HD
ENDBRANCH   2   3
BRANCH   2   5
ATOM      5  C   UNK d   0      -8.720   3.056 -23.121  0.00  0.00     0.115 C 
BRANCH   5   6
ATOM      6  C   UNK d   0      -9.130   3.457 -21.731  0.00  0.00     0.052 C 
BRANCH   6   7
ATOM      7  C   UNK d   0      -8.240   4.529 -21.148  0.00  0.00    -0.020 A 
ATOM      8  C   UNK d   0      -8.587   5.728 -20.755  0.00  0.00    -0.011 A 
ATOM      9  C   UNK d   0      -7.392   6.402 -20.276  0.00  0.00     0.067 A 
ATOM     10  C   UNK d   0      -7.090   7.655 -19.719  0.00  0.00     0.062 C 
ATOM     11  N   UNK d   0      -6.362   5.542 -20.420  0.00  0.00    -0.248 NA
ATOM     12  C   UNK d   0      -5.915   8.026 -19.056  0.00  0.00     0.041 A 
ATOM     13  N   UNK d   0      -4.622   7.779 -19.338  0.00  0.00    -0.355 N 
ATOM     14  C   UNK d   0      -6.013   8.740 -17.848  0.00  0.00    -0.022 A 
ATOM     15  C   UNK d   0      -3.897   8.310 -18.336  0.00  0.00     0.042 A 
ATOM     16  H   UNK d   0      -4.229   7.256 -20.238  0.00  0.00     0.166 HD
ATOM     17  C   UNK d   0      -2.503   8.337 -18.132  0.00  0.00     0.062 C 
ATOM     18  C   UNK d   0      -4.734   8.921 -17.382  0.00  0.00    -0.013 A 
ATOM     19  C   UNK d   0      -1.589   7.325 -18.281  0.00  0.00     0.067 A 
ATOM     20  N   UNK d   0      -2.014   6.211 -18.883  0.00  0.00    -0.248 NA
ATOM     21  C   UNK d   0      -0.196   7.115 -17.926  0.00  0.00    -0.011 A 
ATOM     22  C   UNK d   0      -1.000   5.287 -18.946  0.00  0.00     0.066 A 
ATOM     23  C   UNK d   0      -1.294   4.091 -19.585  0.00  0.00     0.062 C 
ATOM     24  C   UNK d   0       0.142   5.919 -18.314  0.00  0.00    -0.020 A 
ATOM     25  C   UNK d   0      -2.476   3.742 -20.255  0.00  0.00     0.041 A 
ATOM     26  N   UNK d   0      -3.762   3.976 -19.968  0.00  0.00    -0.355 N 
ATOM     27  C   UNK d   0      -2.377   3.030 -21.471  0.00  0.00    -0.022 A 
ATOM     28  C   UNK d   0      -4.488   3.439 -20.961  0.00  0.00     0.042 A 
ATOM     29  H   UNK d   0      -4.156   4.492 -19.058  0.00  0.00     0.166 HD
ATOM     30  C   UNK d   0      -5.875   3.397 -21.172  0.00  0.00     0.062 C 
ATOM     31  C   UNK d   0      -3.646   2.835 -21.924  0.00  0.00    -0.013 A 
ATOM     32  C   UNK d   0      -6.806   4.396 -20.939  0.00  0.00     0.066 A 
BRANCH   8  33
ATOM     33  C   UNK d   0      -9.940   6.313 -20.787  0.00  0.00     0.151 C 
BRANCH  33  34
ATOM     34  C   UNK d   0     -10.309   6.824 -22.120  0.00  0.00     0.143 C 
ATOM     35  O   UNK d   0     -11.478   6.756 -22.526  0.00  0.00    -0.650 OA
BRANCH  34  36
ATOM     36  O   UNK d   0      -9.340   7.381 -22.922  0.00  0.00    -0.776 OA
ATOM     37  H   UNK d   0      -9.134   8.388 -22.889  0.00  0.00     0.167 HD
ENDBRANCH  34  36
ENDBRANCH  33  34
ENDBRANCH   8  33
BRANCH  31  38
ATOM     38  C   UNK d   0      -4.036   2.129 -23.202  0.00  0.00     0.151 C 
BRANCH  38  39
ATOM     39  C   UNK d   0      -4.087   0.690 -23.055  0.00  0.00     0.143 C 
ATOM     40  O   UNK d   0      -3.245  -0.063 -23.575  0.00  0.00    -0.650 OA
BRANCH  39  41
ATOM     41  O   UNK d   0      -5.112   0.112 -22.305  0.00  0.00    -0.776 OA
ATOM     42  H   UNK d   0      -4.917  -0.061 -21.314  0.00  0.00     0.167 HD
ENDBRANCH  39  41
ENDBRANCH  38  39
ENDBRANCH  31  38
BRANCH  27  43
ATOM     43  C   UNK d   0      -1.150   2.538 -22.196  0.00  0.00     0.052 C 
BRANCH  43  44
ATOM     44  C   UNK d   0      -0.477   1.393 -21.511  0.00  0.00     0.115 C 
BRANCH  44  45
ATOM     45  C   UNK d   0       0.951   1.772 -21.354  0.00  0.00     0.139 C 
ATOM     46  O   UNK d   0       1.308   2.910 -21.748  0.00  0.00    -0.650 OA
BRANCH  45  47
ATOM     47  O   UNK d   0       1.889   0.934 -20.792  0.00  0.00    -0.776 OA
ATOM     48  H   UNK d   0       1.764  -0.090 -20.736  0.00  0.00     0.167 HD
ENDBRANCH  45  47
ENDBRANCH  44  45
ENDBRANCH  43  44
ENDBRANCH  27  43
BRANCH  24  49
ATOM     49  C   UNK d   0       1.477   5.309 -18.186  0.00  0.00     0.052 C 
BRANCH  49  50
ATOM     50  C   UNK d   0       1.514   4.371 -17.007  0.00  0.00     0.115 C 
BRANCH  50  51
ATOM     51  C   UNK d   0       2.066   3.042 -17.232  0.00  0.00     0.139 C 
ATOM     52  O   UNK d   0       2.061   2.150 -16.351  0.00  0.00    -0.650 OA
BRANCH  51  53
ATOM     53  O   UNK d   0       2.626   2.730 -18.461  0.00  0.00    -0.776 OA
ATOM     54  H   UNK d   0       3.594   2.459 -18.487  0.00  0.00     0.167 HD
ENDBRANCH  51  53
ENDBRANCH  50  51
ENDBRANCH  49  50
ENDBRANCH  24  49
BRANCH  21  55
ATOM     55  C   UNK d   0       0.654   8.132 -17.239  0.00  0.00     0.151 C 
BRANCH  55  56
ATOM     56  C   UNK d   0       0.682   7.934 -15.782  0.00  0.00     0.143 C 
ATOM     57  O   UNK d   0       1.682   8.197 -15.085  0.00  0.00    -0.650 OA
BRANCH  56  58
ATOM     58  O   UNK d   0      -0.466   7.430 -15.172  0.00  0.00    -0.776 OA
ATOM     59  H   UNK d   0      -1.050   8.138 -14.691  0.00  0.00     0.167 HD
ENDBRANCH  56  58
ENDBRANCH  55  56
ENDBRANCH  21  55
BRANCH  18  60
ATOM     60  C   UNK d   0      -4.373   9.634 -16.103  0.00  0.00     0.151 C 
BRANCH  60  61
ATOM     61  C   UNK d   0      -4.005   8.581 -15.144  0.00  0.00     0.143 C 
ATOM     62  O   UNK d   0      -4.534   7.476 -15.016  0.00  0.00    -0.650 OA
BRANCH  61  63
ATOM     63  O   UNK d   0      -2.924   8.897 -14.287  0.00  0.00    -0.776 OA
ATOM     64  H   UNK d   0      -2.077   8.357 -14.300  0.00  0.00     0.167 HD
ENDBRANCH  61  63
ENDBRANCH  60  61
ENDBRANCH  18  60
BRANCH  14  65
ATOM     65  C   UNK d   0      -7.203   9.343 -17.158  0.00  0.00     0.052 C 
BRANCH  65  66
ATOM     66  C   UNK d   0      -7.913   8.380 -16.275  0.00  0.00     0.115 C 
BRANCH  66  67
ATOM     67  C   UNK d   0      -7.815   8.516 -14.849  0.00  0.00     0.139 C 
ATOM     68  O   UNK d   0      -7.865   7.454 -14.126  0.00  0.00    -0.650 OA
BRANCH  67  69
ATOM     69  O   UNK d   0      -7.669   9.691 -14.112  0.00  0.00    -0.776 OA
ATOM     70  H   UNK d   0      -8.314   9.804 -13.317  0.00  0.00     0.167 HD
ENDBRANCH  67  69
ENDBRANCH  66  67
ENDBRANCH  65  66
ENDBRANCH  14  65
ENDBRANCH   6   7
ENDBRANCH   5   6
ENDBRANCH   2   5
TORSDOF 28
ENDMDL
MODEL 12
REMARK VINA RESULT:      -7.4      6.944     12.280
REMARK  28 active torsions:
REMARK  status: ('A' for Active; 'I' for Inactive)
REMARK    1  A    between atoms: C_2  and  O_3 
REMARK    2  A    between atoms: C_2  and  C_4 
REMARK    3  A    between atoms: C_4  and  C_5 
REMARK    4  A    between atoms: C_5  and  C_6 
REMARK    5  A    between atoms: C_7  and  C_8 
REMARK    6  A    between atoms: C_8  and  C_9 
REMARK    7  A    between atoms: C_9  and  O_11 
REMARK    8  A    between atoms: C_28  and  C_29 
REMARK    9  A    between atoms: C_29  and  C_30 
REMARK   10  A    between atoms: C_30  and  O_32 
REMARK   11  A    between atoms: C_33  and  C_34 
REMARK   12  A    between atoms: C_34  and  C_35 
REMARK   13  A    between atoms: C_35  and  C_36 
REMARK   14  A    between atoms: C_36  and  O_38 
REMARK   15  A    between atoms: C_39  and  C_40 
REMARK   16  A    between atoms: C_40  and  C_41 
REMARK   17  A    between atoms: C_41  and  C_42 
REMARK   18  A    between atoms: C_42  and  O_44 
REMARK   19  A    between atoms: C_45  and  C_46 
REMARK   20  A    between atoms: C_46  and  C_47 
REMARK   21  A    between atoms: C_47  and  O_49 
REMARK   22  A    between atoms: C_50  and  C_51 
REMARK   23  A    between atoms: C_51  and  C_52 
REMARK   24  A    between atoms: C_52  and  O_54 
REMARK   25  A    between atoms: C_55  and  C_56 
REMARK   26  A    between atoms: C_56  and  C_57 
REMARK   27  A    between atoms: C_57  and  C_58 
REMARK   28  A    between atoms: C_58  and  O_60 
ROOT
ATOM      1  O   UNK d   0       8.343  13.361 -10.994  0.00  0.00    -0.650 OA
ATOM      2  C   UNK d   0       8.773  12.414 -10.299  0.00  0.00     0.139 C 
ENDROOT
BRANCH   2   3
ATOM      3  O   UNK d   0       7.926  11.788  -9.416  0.00  0.00    -0.776 OA
ATOM      4  H   UNK d   0       7.697  10.797  -9.518  0.00  0.00     0.167 HD
ENDBRANCH   2   3
BRANCH   2   5
ATOM      5  C   UNK d   0      10.191  11.974 -10.429  0.00  0.00     0.115 C 
BRANCH   5   6
ATOM      6  C   UNK d   0      10.791  11.752  -9.067  0.00  0.00     0.052 C 
BRANCH   6   7
ATOM      7  C   UNK d   0      11.730  12.862  -8.658  0.00  0.00    -0.020 A 
ATOM      8  C   UNK d   0      13.038  12.840  -8.656  0.00  0.00    -0.011 A 
ATOM      9  C   UNK d   0      13.504  14.131  -8.176  0.00  0.00     0.067 A 
ATOM     10  C   UNK d   0      14.749  14.742  -7.962  0.00  0.00     0.062 C 
ATOM     11  N   UNK d   0      12.411  14.875  -7.903  0.00  0.00    -0.248 NA
ATOM     12  C   UNK d   0      15.000  16.103  -7.755  0.00  0.00     0.041 A 
ATOM     13  N   UNK d   0      14.359  17.018  -7.004  0.00  0.00    -0.355 N 
ATOM     14  C   UNK d   0      16.054  16.715  -8.457  0.00  0.00    -0.022 A 
ATOM     15  C   UNK d   0      14.975  18.197  -7.217  0.00  0.00     0.042 A 
ATOM     16  H   UNK d   0      13.501  16.832  -6.321  0.00  0.00     0.166 HD
ATOM     17  C   UNK d   0      14.712  19.474  -6.683  0.00  0.00     0.062 C 
ATOM     18  C   UNK d   0      16.043  18.046  -8.123  0.00  0.00    -0.013 A 
ATOM     19  C   UNK d   0      13.508  20.112  -6.525  0.00  0.00     0.067 A 
ATOM     20  N   UNK d   0      12.407  19.378  -6.707  0.00  0.00    -0.248 NA
ATOM     21  C   UNK d   0      13.075  21.461  -6.204  0.00  0.00    -0.011 A 
ATOM     22  C   UNK d   0      11.285  20.151  -6.531  0.00  0.00     0.066 A 
ATOM     23  C   UNK d   0      10.065  19.503  -6.655  0.00  0.00     0.062 C 
ATOM     24  C   UNK d   0      11.773  21.479  -6.213  0.00  0.00    -0.020 A 
ATOM     25  C   UNK d   0       9.834  18.133  -6.850  0.00  0.00     0.041 A 
ATOM     26  N   UNK d   0      10.462  17.226  -7.608  0.00  0.00    -0.355 N 
ATOM     27  C   UNK d   0       8.779  17.518  -6.142  0.00  0.00    -0.022 A 
ATOM     28  C   UNK d   0       9.844  16.052  -7.404  0.00  0.00     0.042 A 
ATOM     29  H   UNK d   0      11.317  17.417  -8.302  0.00  0.00     0.166 HD
ATOM     30  C   UNK d   0      10.089  14.775  -7.935  0.00  0.00     0.062 C 
ATOM     31  C   UNK d   0       8.778  16.202  -6.486  0.00  0.00    -0.013 A 
ATOM     32  C   UNK d   0      11.312  14.169  -8.173  0.00  0.00     0.066 A 
BRANCH   8  33
ATOM     33  C   UNK d   0      13.905  11.717  -9.058  0.00  0.00     0.151 C 
BRANCH  33  34
ATOM     34  C   UNK d   0      14.448  10.974  -7.907  0.00  0.00     0.143 C 
ATOM     35  O   UNK d   0      13.890   9.948  -7.491  0.00  0.00    -0.650 OA
BRANCH  34  36
ATOM     36  O   UNK d   0      15.588  11.429  -7.286  0.00  0.00    -0.776 OA
ATOM     37  H   UNK d   0      15.749  12.434  -7.134  0.00  0.00     0.167 HD
ENDBRANCH  34  36
ENDBRANCH  33  34
ENDBRANCH   8  33
BRANCH  31  38
ATOM     38  C   UNK d   0       7.832  15.145  -5.966  0.00  0.00     0.151 C 
BRANCH  38  39
ATOM     39  C   UNK d   0       6.962  14.615  -6.994  0.00  0.00     0.143 C 
ATOM     40  O   UNK d   0       6.942  13.408  -7.293  0.00  0.00    -0.650 OA
BRANCH  39  41
ATOM     41  O   UNK d   0       6.108  15.478  -7.682  0.00  0.00    -0.776 OA
ATOM     42  H   UNK d   0       5.396  15.962  -7.126  0.00  0.00     0.167 HD
ENDBRANCH  39  41
ENDBRANCH  38  39
ENDBRANCH  31  38
BRANCH  27  43
ATOM     43  C   UNK d   0       7.793  18.125  -5.174  0.00  0.00     0.052 C 
BRANCH  43  44
ATOM     44  C   UNK d   0       8.331  18.255  -3.786  0.00  0.00     0.115 C 
BRANCH  44  45
ATOM     45  C   UNK d   0       7.165  18.169  -2.869  0.00  0.00     0.139 C 
ATOM     46  O   UNK d   0       6.449  19.190  -2.724  0.00  0.00    -0.650 OA
BRANCH  45  47
ATOM     47  O   UNK d   0       6.839  17.020  -2.182  0.00  0.00    -0.776 OA
ATOM     48  H   UNK d   0       5.863  16.721  -2.021  0.00  0.00     0.167 HD
ENDBRANCH  45  47
ENDBRANCH  44  45
ENDBRANCH  43  44
ENDBRANCH  27  43
BRANCH  24  49
ATOM     49  C   UNK d   0      10.918  22.637  -5.903  0.00  0.00     0.052 C 
BRANCH  49  50
ATOM     50  C   UNK d   0      10.027  22.332  -4.726  0.00  0.00     0.115 C 
BRANCH  50  51
ATOM     51  C   UNK d   0      10.679  22.052  -3.454  0.00  0.00     0.139 C 
ATOM     52  O   UNK d   0      10.694  20.910  -2.938  0.00  0.00    -0.650 OA
BRANCH  51  53
ATOM     53  O   UNK d   0      11.313  23.077  -2.768  0.00  0.00    -0.776 OA
ATOM     54  H   UNK d   0      11.115  23.188  -1.789  0.00  0.00     0.167 HD
ENDBRANCH  51  53
ENDBRANCH  50  51
ENDBRANCH  49  50
ENDBRANCH  24  49
BRANCH  21  55
ATOM     55  C   UNK d   0      14.007  22.592  -5.917  0.00  0.00     0.151 C 
BRANCH  55  56
ATOM     56  C   UNK d   0      14.680  22.436  -4.618  0.00  0.00     0.143 C 
ATOM     57  O   UNK d   0      15.805  21.913  -4.500  0.00  0.00    -0.650 OA
BRANCH  56  58
ATOM     58  O   UNK d   0      14.015  22.898  -3.483  0.00  0.00    -0.776 OA
ATOM     59  H   UNK d   0      13.672  23.873  -3.546  0.00  0.00     0.167 HD
ENDBRANCH  56  58
ENDBRANCH  55  56
ENDBRANCH  21  55
BRANCH  18  60
ATOM     60  C   UNK d   0      17.003  19.080  -8.656  0.00  0.00     0.151 C 
BRANCH  60  61
ATOM     61  C   UNK d   0      16.584  19.344 -10.041  0.00  0.00     0.143 C 
ATOM     62  O   UNK d   0      15.469  19.697 -10.425  0.00  0.00    -0.650 OA
BRANCH  61  63
ATOM     63  O   UNK d   0      17.592  19.165 -11.020  0.00  0.00    -0.776 OA
ATOM     64  H   UNK d   0      17.356  18.975 -11.978  0.00  0.00     0.167 HD
ENDBRANCH  61  63
ENDBRANCH  60  61
ENDBRANCH  18  60
BRANCH  14  65
ATOM     65  C   UNK d   0      17.122  16.125  -9.334  0.00  0.00     0.052 C 
BRANCH  65  66
ATOM     66  C   UNK d   0      16.577  15.475 -10.556  0.00  0.00     0.115 C 
BRANCH  66  67
ATOM     67  C   UNK d   0      17.464  14.786 -11.452  0.00  0.00     0.139 C 
ATOM     68  O   UNK d   0      17.562  15.208 -12.662  0.00  0.00    -0.650 OA
BRANCH  67  69
ATOM     69  O   UNK d   0      18.263  13.678 -11.175  0.00  0.00    -0.776 OA
ATOM     70  H   UNK d   0      18.338  13.416 -10.182  0.00  0.00     0.167 HD
ENDBRANCH  67  69
ENDBRANCH  66  67
ENDBRANCH  65  66
ENDBRANCH  14  65
ENDBRANCH   6   7
ENDBRANCH   5   6
ENDBRANCH   2   5
TORSDOF 28
ENDMDL
MODEL 13
REMARK VINA RESULT:      -7.3     29.546     33.781
REMARK  28 active torsions:
REMARK  status: ('A' for Active; 'I' for Inactive)
REMARK    1  A    between atoms: C_2  and  O_3 
REMARK    2  A    between atoms: C_2  and  C_4 
REMARK    3  A    between atoms: C_4  and  C_5 
REMARK    4  A    between atoms: C_5  and  C_6 
REMARK    5  A    between atoms: C_7  and  C_8 
REMARK    6  A    between atoms: C_8  and  C_9 
REMARK    7  A    between atoms: C_9  and  O_11 
REMARK    8  A    between atoms: C_28  and  C_29 
REMARK    9  A    between atoms: C_29  and  C_30 
REMARK   10  A    between atoms: C_30  and  O_32 
REMARK   11  A    between atoms: C_33  and  C_34 
REMARK   12  A    between atoms: C_34  and  C_35 
REMARK   13  A    between atoms: C_35  and  C_36 
REMARK   14  A    between atoms: C_36  and  O_38 
REMARK   15  A    between atoms: C_39  and  C_40 
REMARK   16  A    between atoms: C_40  and  C_41 
REMARK   17  A    between atoms: C_41  and  C_42 
REMARK   18  A    between atoms: C_42  and  O_44 
REMARK   19  A    between atoms: C_45  and  C_46 
REMARK   20  A    between atoms: C_46  and  C_47 
REMARK   21  A    between atoms: C_47  and  O_49 
REMARK   22  A    between atoms: C_50  and  C_51 
REMARK   23  A    between atoms: C_51  and  C_52 
REMARK   24  A    between atoms: C_52  and  O_54 
REMARK   25  A    between atoms: C_55  and  C_56 
REMARK   26  A    between atoms: C_56  and  C_57 
REMARK   27  A    between atoms: C_57  and  C_58 
REMARK   28  A    between atoms: C_58  and  O_60 
ROOT
ATOM      1  O   UNK d   0     -14.638  10.379   3.046  0.00  0.00    -0.650 OA
ATOM      2  C   UNK d   0     -15.567  11.123   3.431  0.00  0.00     0.139 C 
ENDROOT
BRANCH   2   3
ATOM      3  O   UNK d   0     -16.217  11.917   2.517  0.00  0.00    -0.776 OA
ATOM      4  H   UNK d   0     -15.867  12.017   1.562  0.00  0.00     0.167 HD
ENDBRANCH   2   3
BRANCH   2   5
ATOM      5  C   UNK d   0     -15.960  11.146   4.869  0.00  0.00     0.115 C 
BRANCH   5   6
ATOM      6  C   UNK d   0     -16.540  12.488   5.225  0.00  0.00     0.052 C 
BRANCH   6   7
ATOM      7  C   UNK d   0     -15.528  13.408   5.864  0.00  0.00    -0.020 A 
ATOM      8  C   UNK d   0     -15.321  13.603   7.141  0.00  0.00    -0.011 A 
ATOM      9  C   UNK d   0     -14.254  14.581   7.275  0.00  0.00     0.067 A 
ATOM     10  C   UNK d   0     -13.565  15.189   8.336  0.00  0.00     0.062 C 
ATOM     11  N   UNK d   0     -13.874  14.933   6.028  0.00  0.00    -0.248 NA
ATOM     12  C   UNK d   0     -12.367  15.909   8.266  0.00  0.00     0.041 A 
ATOM     13  N   UNK d   0     -11.938  16.832   7.385  0.00  0.00    -0.355 N 
ATOM     14  C   UNK d   0     -11.359  15.645   9.211  0.00  0.00    -0.022 A 
ATOM     15  C   UNK d   0     -10.680  17.156   7.742  0.00  0.00     0.042 A 
ATOM     16  H   UNK d   0     -12.519  17.261   6.539  0.00  0.00     0.166 HD
ATOM     17  C   UNK d   0      -9.773  18.067   7.166  0.00  0.00     0.062 C 
ATOM     18  C   UNK d   0     -10.283  16.431   8.883  0.00  0.00    -0.013 A 
ATOM     19  C   UNK d   0      -9.466  18.258   5.843  0.00  0.00     0.067 A 
ATOM     20  N   UNK d   0     -10.252  17.657   4.946  0.00  0.00    -0.248 NA
ATOM     21  C   UNK d   0      -8.441  18.974   5.101  0.00  0.00    -0.011 A 
ATOM     22  C   UNK d   0      -9.814  17.926   3.673  0.00  0.00     0.066 A 
ATOM     23  C   UNK d   0     -10.566  17.391   2.637  0.00  0.00     0.062 C 
ATOM     24  C   UNK d   0      -8.648  18.772   3.832  0.00  0.00    -0.020 A 
ATOM     25  C   UNK d   0     -11.774  16.682   2.728  0.00  0.00     0.041 A 
ATOM     26  N   UNK d   0     -12.195  15.753   3.595  0.00  0.00    -0.355 N 
ATOM     27  C   UNK d   0     -12.787  16.950   1.781  0.00  0.00    -0.022 A 
ATOM     28  C   UNK d   0     -13.446  15.423   3.235  0.00  0.00     0.042 A 
ATOM     29  H   UNK d   0     -11.606  15.315   4.438  0.00  0.00     0.166 HD
ATOM     30  C   UNK d   0     -14.356  14.512   3.794  0.00  0.00     0.062 C 
ATOM     31  C   UNK d   0     -13.849  16.158   2.095  0.00  0.00    -0.013 A 
ATOM     32  C   UNK d   0     -14.602  14.262   5.134  0.00  0.00     0.066 A 
BRANCH   8  33
ATOM     33  C   UNK d   0     -16.033  12.961   8.261  0.00  0.00     0.151 C 
BRANCH  33  34
ATOM     34  C   UNK d   0     -15.232  11.915   8.923  0.00  0.00     0.143 C 
ATOM     35  O   UNK d   0     -15.108  10.792   8.415  0.00  0.00    -0.650 OA
BRANCH  34  36
ATOM     36  O   UNK d   0     -14.615  12.194  10.120  0.00  0.00    -0.776 OA
ATOM     37  H   UNK d   0     -14.047  11.486  10.606  0.00  0.00     0.167 HD
ENDBRANCH  34  36
ENDBRANCH  33  34
ENDBRANCH   8  33
BRANCH  31  38
ATOM     38  C   UNK d   0     -15.171  16.111   1.367  0.00  0.00     0.151 C 
BRANCH  38  39
ATOM     39  C   UNK d   0     -15.188  15.138   0.295  0.00  0.00     0.143 C 
ATOM     40  O   UNK d   0     -15.581  13.970   0.462  0.00  0.00    -0.650 OA
BRANCH  39  41
ATOM     41  O   UNK d   0     -14.750  15.511  -0.976  0.00  0.00    -0.776 OA
ATOM     42  H   UNK d   0     -14.760  16.513  -1.192  0.00  0.00     0.167 HD
ENDBRANCH  39  41
ENDBRANCH  38  39
ENDBRANCH  31  38
BRANCH  27  43
ATOM     43  C   UNK d   0     -12.781  17.908   0.616  0.00  0.00     0.052 C 
BRANCH  43  44
ATOM     44  C   UNK d   0     -13.843  18.955   0.706  0.00  0.00     0.115 C 
BRANCH  44  45
ATOM     45  C   UNK d   0     -13.231  20.122   1.394  0.00  0.00     0.139 C 
ATOM     46  O   UNK d   0     -13.136  20.086   2.646  0.00  0.00    -0.650 OA
BRANCH  45  47
ATOM     47  O   UNK d   0     -12.765  21.228   0.718  0.00  0.00    -0.776 OA
ATOM     48  H   UNK d   0     -12.637  22.148   1.170  0.00  0.00     0.167 HD
ENDBRANCH  45  47
ENDBRANCH  44  45
ENDBRANCH  43  44
ENDBRANCH  27  43
BRANCH  24  49
ATOM     49  C   UNK d   0      -7.866  19.343   2.723  0.00  0.00     0.052 C 
BRANCH  49  50
ATOM     50  C   UNK d   0      -8.245  20.785   2.502  0.00  0.00     0.115 C 
BRANCH  50  51
ATOM     51  C   UNK d   0      -9.446  21.044   1.719  0.00  0.00     0.139 C 
ATOM     52  O   UNK d   0     -10.211  22.009   1.954  0.00  0.00    -0.650 OA
BRANCH  51  53
ATOM     53  O   UNK d   0      -9.777  20.200   0.670  0.00  0.00    -0.776 OA
ATOM     54  H   UNK d   0      -9.150  20.148  -0.113  0.00  0.00     0.167 HD
ENDBRANCH  51  53
ENDBRANCH  50  51
ENDBRANCH  49  50
ENDBRANCH  24  49
BRANCH  21  55
ATOM     55  C   UNK d   0      -7.364  19.788   5.739  0.00  0.00     0.151 C 
BRANCH  55  56
ATOM     56  C   UNK d   0      -7.866  21.082   6.224  0.00  0.00     0.143 C 
ATOM     57  O   UNK d   0      -8.934  21.585   5.825  0.00  0.00    -0.650 OA
BRANCH  56  58
ATOM     58  O   UNK d   0      -7.100  21.761   7.171  0.00  0.00    -0.776 OA
ATOM     59  H   UNK d   0      -7.618  22.467   7.726  0.00  0.00     0.167 HD
ENDBRANCH  56  58
ENDBRANCH  55  56
ENDBRANCH  21  55
BRANCH  18  60
ATOM     60  C   UNK d   0      -8.973  16.461   9.631  0.00  0.00     0.151 C 
BRANCH  60  61
ATOM     61  C   UNK d   0      -8.167  15.362   9.077  0.00  0.00     0.143 C 
ATOM     62  O   UNK d   0      -7.650  15.311   7.961  0.00  0.00    -0.650 OA
BRANCH  61  63
ATOM     63  O   UNK d   0      -7.980  14.257   9.942  0.00  0.00    -0.776 OA
ATOM     64  H   UNK d   0      -8.594  14.098  10.721  0.00  0.00     0.167 HD
ENDBRANCH  61  63
ENDBRANCH  60  61
ENDBRANCH  18  60
BRANCH  14  65
ATOM     65  C   UNK d   0     -11.371  14.789  10.446  0.00  0.00     0.052 C 
BRANCH  65  66
ATOM     66  C   UNK d   0     -12.048  15.442  11.599  0.00  0.00     0.115 C 
BRANCH  66  67
ATOM     67  C   UNK d   0     -12.821  14.648  12.512  0.00  0.00     0.139 C 
ATOM     68  O   UNK d   0     -13.986  14.250  12.144  0.00  0.00    -0.650 OA
BRANCH  67  69
ATOM     69  O   UNK d   0     -12.466  14.236  13.796  0.00  0.00    -0.776 OA
ATOM     70  H   UNK d   0     -13.239  14.162  14.473  0.00  0.00     0.167 HD
ENDBRANCH  67  69
ENDBRANCH  66  67
ENDBRANCH  65  66
ENDBRANCH  14  65
ENDBRANCH   6   7
ENDBRANCH   5   6
ENDBRANCH   2   5
TORSDOF 28
ENDMDL
MODEL 14
REMARK VINA RESULT:      -7.3      7.076     13.621
REMARK  28 active torsions:
REMARK  status: ('A' for Active; 'I' for Inactive)
REMARK    1  A    between atoms: C_2  and  O_3 
REMARK    2  A    between atoms: C_2  and  C_4 
REMARK    3  A    between atoms: C_4  and  C_5 
REMARK    4  A    between atoms: C_5  and  C_6 
REMARK    5  A    between atoms: C_7  and  C_8 
REMARK    6  A    between atoms: C_8  and  C_9 
REMARK    7  A    between atoms: C_9  and  O_11 
REMARK    8  A    between atoms: C_28  and  C_29 
REMARK    9  A    between atoms: C_29  and  C_30 
REMARK   10  A    between atoms: C_30  and  O_32 
REMARK   11  A    between atoms: C_33  and  C_34 
REMARK   12  A    between atoms: C_34  and  C_35 
REMARK   13  A    between atoms: C_35  and  C_36 
REMARK   14  A    between atoms: C_36  and  O_38 
REMARK   15  A    between atoms: C_39  and  C_40 
REMARK   16  A    between atoms: C_40  and  C_41 
REMARK   17  A    between atoms: C_41  and  C_42 
REMARK   18  A    between atoms: C_42  and  O_44 
REMARK   19  A    between atoms: C_45  and  C_46 
REMARK   20  A    between atoms: C_46  and  C_47 
REMARK   21  A    between atoms: C_47  and  O_49 
REMARK   22  A    between atoms: C_50  and  C_51 
REMARK   23  A    between atoms: C_51  and  C_52 
REMARK   24  A    between atoms: C_52  and  O_54 
REMARK   25  A    between atoms: C_55  and  C_56 
REMARK   26  A    between atoms: C_56  and  C_57 
REMARK   27  A    between atoms: C_57  and  C_58 
REMARK   28  A    between atoms: C_58  and  O_60 
ROOT
ATOM      1  O   UNK d   0       3.223  14.507 -10.732  0.00  0.00    -0.650 OA
ATOM      2  C   UNK d   0       3.153  14.987  -9.579  0.00  0.00     0.139 C 
ENDROOT
BRANCH   2   3
ATOM      3  O   UNK d   0       2.849  14.162  -8.523  0.00  0.00    -0.776 OA
ATOM      4  H   UNK d   0       2.145  13.427  -8.614  0.00  0.00     0.167 HD
ENDBRANCH   2   3
BRANCH   2   5
ATOM      5  C   UNK d   0       3.397  16.440  -9.358  0.00  0.00     0.115 C 
BRANCH   5   6
ATOM      6  C   UNK d   0       3.810  16.685  -7.932  0.00  0.00     0.052 C 
BRANCH   6   7
ATOM      7  C   UNK d   0       5.262  17.078  -7.806  0.00  0.00    -0.020 A 
ATOM      8  C   UNK d   0       5.747  18.257  -7.510  0.00  0.00    -0.011 A 
ATOM      9  C   UNK d   0       7.197  18.155  -7.513  0.00  0.00     0.067 A 
ATOM     10  C   UNK d   0       8.273  19.021  -7.264  0.00  0.00     0.062 C 
ATOM     11  N   UNK d   0       7.508  16.880  -7.827  0.00  0.00    -0.248 NA
ATOM     12  C   UNK d   0       9.609  18.669  -7.043  0.00  0.00     0.041 A 
ATOM     13  N   UNK d   0      10.403  17.770  -7.656  0.00  0.00    -0.355 N 
ATOM     14  C   UNK d   0      10.305  19.274  -5.980  0.00  0.00    -0.022 A 
ATOM     15  C   UNK d   0      11.581  17.783  -7.005  0.00  0.00     0.042 A 
ATOM     16  H   UNK d   0      10.141  17.153  -8.544  0.00  0.00     0.166 HD
ATOM     17  C   UNK d   0      12.758  17.042  -7.231  0.00  0.00     0.062 C 
ATOM     18  C   UNK d   0      11.558  18.713  -5.947  0.00  0.00    -0.013 A 
ATOM     19  C   UNK d   0      12.896  15.702  -7.493  0.00  0.00     0.067 A 
ATOM     20  N   UNK d   0      11.781  15.022  -7.769  0.00  0.00    -0.248 NA
ATOM     21  C   UNK d   0      13.998  14.756  -7.540  0.00  0.00    -0.011 A 
ATOM     22  C   UNK d   0      12.073  13.699  -7.993  0.00  0.00     0.066 A 
ATOM     23  C   UNK d   0      11.006  12.880  -8.330  0.00  0.00     0.062 C 
ATOM     24  C   UNK d   0      13.509  13.584  -7.829  0.00  0.00    -0.020 A 
ATOM     25  C   UNK d   0       9.673  13.255  -8.560  0.00  0.00     0.041 A 
ATOM     26  N   UNK d   0       8.880  14.138  -7.941  0.00  0.00    -0.355 N 
ATOM     27  C   UNK d   0       8.977  12.651  -9.630  0.00  0.00    -0.022 A 
ATOM     28  C   UNK d   0       7.701  14.120  -8.583  0.00  0.00     0.042 A 
ATOM     29  H   UNK d   0       9.140  14.749  -7.043  0.00  0.00     0.166 HD
ATOM     30  C   UNK d   0       6.519  14.846  -8.363  0.00  0.00     0.062 C 
ATOM     31  C   UNK d   0       7.729  13.193  -9.652  0.00  0.00    -0.013 A 
ATOM     32  C   UNK d   0       6.388  16.181  -8.015  0.00  0.00     0.066 A 
BRANCH   8  33
ATOM     33  C   UNK d   0       4.980  19.484  -7.225  0.00  0.00     0.151 C 
BRANCH  33  34
ATOM     34  C   UNK d   0       4.780  19.710  -5.783  0.00  0.00     0.143 C 
ATOM     35  O   UNK d   0       3.687  20.097  -5.344  0.00  0.00    -0.650 OA
BRANCH  34  36
ATOM     36  O   UNK d   0       5.824  19.490  -4.914  0.00  0.00    -0.776 OA
ATOM     37  H   UNK d   0       6.127  18.536  -4.674  0.00  0.00     0.167 HD
ENDBRANCH  34  36
ENDBRANCH  33  34
ENDBRANCH   8  33
BRANCH  31  38
ATOM     38  C   UNK d   0       6.631  12.863 -10.636  0.00  0.00     0.151 C 
BRANCH  38  39
ATOM     39  C   UNK d   0       5.818  11.741 -10.215  0.00  0.00     0.143 C 
ATOM     40  O   UNK d   0       6.291  10.603 -10.049  0.00  0.00    -0.650 OA
BRANCH  39  41
ATOM     41  O   UNK d   0       4.456  11.929  -9.984  0.00  0.00    -0.776 OA
ATOM     42  H   UNK d   0       4.146  12.890  -9.807  0.00  0.00     0.167 HD
ENDBRANCH  39  41
ENDBRANCH  38  39
ENDBRANCH  31  38
BRANCH  27  43
ATOM     43  C   UNK d   0       9.444  11.601 -10.606  0.00  0.00     0.052 C 
BRANCH  43  44
ATOM     44  C   UNK d   0       9.745  12.148 -11.964  0.00  0.00     0.115 C 
BRANCH  44  45
ATOM     45  C   UNK d   0       8.939  11.355 -12.928  0.00  0.00     0.139 C 
ATOM     46  O   UNK d   0       8.917  11.728 -14.128  0.00  0.00    -0.650 OA
BRANCH  45  47
ATOM     47  O   UNK d   0       8.226  10.234 -12.563  0.00  0.00    -0.776 OA
ATOM     48  H   UNK d   0       8.038   9.986 -11.578  0.00  0.00     0.167 HD
ENDBRANCH  45  47
ENDBRANCH  44  45
ENDBRANCH  43  44
ENDBRANCH  27  43
BRANCH  24  49
ATOM     49  C   UNK d   0      14.281  12.343  -8.015  0.00  0.00     0.052 C 
BRANCH  49  50
ATOM     50  C   UNK d   0      14.144  11.848  -9.432  0.00  0.00     0.115 C 
BRANCH  50  51
ATOM     51  C   UNK d   0      15.331  11.909 -10.275  0.00  0.00     0.139 C 
ATOM     52  O   UNK d   0      15.821  10.896 -10.827  0.00  0.00    -0.650 OA
BRANCH  51  53
ATOM     53  O   UNK d   0      15.961  13.126 -10.486  0.00  0.00    -0.776 OA
ATOM     54  H   UNK d   0      16.529  13.230 -11.308  0.00  0.00     0.167 HD
ENDBRANCH  51  53
ENDBRANCH  50  51
ENDBRANCH  49  50
ENDBRANCH  24  49
BRANCH  21  55
ATOM     55  C   UNK d   0      15.424  15.122  -7.296  0.00  0.00     0.151 C 
BRANCH  55  56
ATOM     56  C   UNK d   0      15.940  16.046  -8.318  0.00  0.00     0.143 C 
ATOM     57  O   UNK d   0      16.296  15.667  -9.452  0.00  0.00    -0.650 OA
BRANCH  56  58
ATOM     58  O   UNK d   0      16.025  17.397  -7.988  0.00  0.00    -0.776 OA
ATOM     59  H   UNK d   0      15.126  17.911  -8.019  0.00  0.00     0.167 HD
ENDBRANCH  56  58
ENDBRANCH  55  56
ENDBRANCH  21  55
BRANCH  18  60
ATOM     60  C   UNK d   0      12.637  19.065  -4.954  0.00  0.00     0.151 C 
BRANCH  60  61
ATOM     61  C   UNK d   0      13.537  19.998  -5.649  0.00  0.00     0.143 C 
ATOM     62  O   UNK d   0      13.299  21.166  -5.960  0.00  0.00    -0.650 OA
BRANCH  61  63
ATOM     63  O   UNK d   0      14.807  19.472  -5.985  0.00  0.00    -0.776 OA
ATOM     64  H   UNK d   0      15.095  18.566  -5.661  0.00  0.00     0.167 HD
ENDBRANCH  61  63
ENDBRANCH  60  61
ENDBRANCH  18  60
BRANCH  14  65
ATOM     65  C   UNK d   0       9.913  20.399  -5.065  0.00  0.00     0.052 C 
BRANCH  65  66
ATOM     66  C   UNK d   0       9.466  19.931  -3.726  0.00  0.00     0.115 C 
BRANCH  66  67
ATOM     67  C   UNK d   0       8.424  20.638  -3.036  0.00  0.00     0.139 C 
ATOM     68  O   UNK d   0       8.438  21.924  -3.055  0.00  0.00    -0.650 OA
BRANCH  67  69
ATOM     69  O   UNK d   0       7.356  20.099  -2.320  0.00  0.00    -0.776 OA
ATOM     70  H   UNK d   0       6.617  19.655  -2.883  0.00  0.00     0.167 HD
ENDBRANCH  67  69
ENDBRANCH  66  67
ENDBRANCH  65  66
ENDBRANCH  14  65
ENDBRANCH   6   7
ENDBRANCH   5   6
ENDBRANCH   2   5
TORSDOF 28
ENDMDL
MODEL 15
REMARK VINA RESULT:      -7.3     21.293     23.997
REMARK  28 active torsions:
REMARK  status: ('A' for Active; 'I' for Inactive)
REMARK    1  A    between atoms: C_2  and  O_3 
REMARK    2  A    between atoms: C_2  and  C_4 
REMARK    3  A    between atoms: C_4  and  C_5 
REMARK    4  A    between atoms: C_5  and  C_6 
REMARK    5  A    between atoms: C_7  and  C_8 
REMARK    6  A    between atoms: C_8  and  C_9 
REMARK    7  A    between atoms: C_9  and  O_11 
REMARK    8  A    between atoms: C_28  and  C_29 
REMARK    9  A    between atoms: C_29  and  C_30 
REMARK   10  A    between atoms: C_30  and  O_32 
REMARK   11  A    between atoms: C_33  and  C_34 
REMARK   12  A    between atoms: C_34  and  C_35 
REMARK   13  A    between atoms: C_35  and  C_36 
REMARK   14  A    between atoms: C_36  and  O_38 
REMARK   15  A    between atoms: C_39  and  C_40 
REMARK   16  A    between atoms: C_40  and  C_41 
REMARK   17  A    between atoms: C_41  and  C_42 
REMARK   18  A    between atoms: C_42  and  O_44 
REMARK   19  A    between atoms: C_45  and  C_46 
REMARK   20  A    between atoms: C_46  and  C_47 
REMARK   21  A    between atoms: C_47  and  O_49 
REMARK   22  A    between atoms: C_50  and  C_51 
REMARK   23  A    between atoms: C_51  and  C_52 
REMARK   24  A    between atoms: C_52  and  O_54 
REMARK   25  A    between atoms: C_55  and  C_56 
REMARK   26  A    between atoms: C_56  and  C_57 
REMARK   27  A    between atoms: C_57  and  C_58 
REMARK   28  A    between atoms: C_58  and  O_60 
ROOT
ATOM      1  O   UNK d   0      -8.914   7.363 -23.430  0.00  0.00    -0.650 OA
ATOM      2  C   UNK d   0      -9.902   6.952 -22.783  0.00  0.00     0.139 C 
ENDROOT
BRANCH   2   3
ATOM      3  O   UNK d   0     -11.004   6.487 -23.459  0.00  0.00    -0.776 OA
ATOM      4  H   UNK d   0     -11.853   7.052 -23.538  0.00  0.00     0.167 HD
ENDBRANCH   2   3
BRANCH   2   5
ATOM      5  C   UNK d   0      -9.881   6.970 -21.293  0.00  0.00     0.115 C 
BRANCH   5   6
ATOM      6  C   UNK d   0      -9.931   5.565 -20.758  0.00  0.00     0.052 C 
BRANCH   6   7
ATOM      7  C   UNK d   0      -8.596   4.864 -20.838  0.00  0.00    -0.020 A 
ATOM      8  C   UNK d   0      -8.310   3.763 -21.484  0.00  0.00    -0.011 A 
ATOM      9  C   UNK d   0      -6.904   3.470 -21.262  0.00  0.00     0.067 A 
ATOM     10  C   UNK d   0      -5.998   2.481 -21.677  0.00  0.00     0.062 C 
ATOM     11  N   UNK d   0      -6.413   4.441 -20.465  0.00  0.00    -0.248 NA
ATOM     12  C   UNK d   0      -4.602   2.517 -21.584  0.00  0.00     0.041 A 
ATOM     13  N   UNK d   0      -3.790   2.922 -20.589  0.00  0.00    -0.355 N 
ATOM     14  C   UNK d   0      -3.836   2.132 -22.699  0.00  0.00    -0.022 A 
ATOM     15  C   UNK d   0      -2.529   2.811 -21.047  0.00  0.00     0.042 A 
ATOM     16  H   UNK d   0      -4.102   3.261 -19.577  0.00  0.00     0.166 HD
ATOM     17  C   UNK d   0      -1.301   3.098 -20.419  0.00  0.00     0.062 C 
ATOM     18  C   UNK d   0      -2.517   2.319 -22.366  0.00  0.00    -0.013 A 
ATOM     19  C   UNK d   0      -0.951   4.191 -19.667  0.00  0.00     0.067 A 
ATOM     20  N   UNK d   0      -1.937   5.013 -19.301  0.00  0.00    -0.248 NA
ATOM     21  C   UNK d   0       0.285   4.742 -19.137  0.00  0.00    -0.011 A 
ATOM     22  C   UNK d   0      -1.435   6.063 -18.571  0.00  0.00     0.066 A 
ATOM     23  C   UNK d   0      -2.361   6.979 -18.092  0.00  0.00     0.062 C 
ATOM     24  C   UNK d   0      -0.005   5.840 -18.500  0.00  0.00    -0.020 A 
ATOM     25  C   UNK d   0      -3.760   6.917 -18.184  0.00  0.00     0.041 A 
ATOM     26  N   UNK d   0      -4.567   6.528 -19.179  0.00  0.00    -0.355 N 
ATOM     27  C   UNK d   0      -4.528   7.300 -17.063  0.00  0.00    -0.022 A 
ATOM     28  C   UNK d   0      -5.826   6.647 -18.728  0.00  0.00     0.042 A 
ATOM     29  H   UNK d   0      -4.253   6.198 -20.199  0.00  0.00     0.166 HD
ATOM     30  C   UNK d   0      -7.057   6.374 -19.345  0.00  0.00     0.062 C 
ATOM     31  C   UNK d   0      -5.837   7.131 -17.398  0.00  0.00    -0.013 A 
ATOM     32  C   UNK d   0      -7.381   5.311 -20.174  0.00  0.00     0.066 A 
BRANCH   8  33
ATOM     33  C   UNK d   0      -9.233   2.946 -22.294  0.00  0.00     0.151 C 
BRANCH  33  34
ATOM     34  C   UNK d   0      -9.094   3.193 -23.740  0.00  0.00     0.143 C 
ATOM     35  O   UNK d   0      -9.857   3.973 -24.329  0.00  0.00    -0.650 OA
BRANCH  34  36
ATOM     36  O   UNK d   0      -8.105   2.546 -24.444  0.00  0.00    -0.776 OA
ATOM     37  H   UNK d   0      -7.894   2.794 -25.420  0.00  0.00     0.167 HD
ENDBRANCH  34  36
ENDBRANCH  33  34
ENDBRANCH   8  33
BRANCH  31  38
ATOM     38  C   UNK d   0      -7.027   7.400 -16.507  0.00  0.00     0.151 C 
BRANCH  38  39
ATOM     39  C   UNK d   0      -7.467   8.778 -16.560  0.00  0.00     0.143 C 
ATOM     40  O   UNK d   0      -7.688   9.366 -17.634  0.00  0.00    -0.650 OA
BRANCH  39  41
ATOM     41  O   UNK d   0      -7.656   9.484 -15.372  0.00  0.00    -0.776 OA
ATOM     42  H   UNK d   0      -8.498  10.066 -15.310  0.00  0.00     0.167 HD
ENDBRANCH  39  41
ENDBRANCH  38  39
ENDBRANCH  31  38
BRANCH  27  43
ATOM     43  C   UNK d   0      -4.073   7.809 -15.719  0.00  0.00     0.052 C 
BRANCH  43  44
ATOM     44  C   UNK d   0      -3.830   9.284 -15.697  0.00  0.00     0.115 C 
BRANCH  44  45
ATOM     45  C   UNK d   0      -4.060   9.731 -14.299  0.00  0.00     0.139 C 
ATOM     46  O   UNK d   0      -5.222   9.642 -13.832  0.00  0.00    -0.650 OA
BRANCH  45  47
ATOM     47  O   UNK d   0      -3.054  10.231 -13.500  0.00  0.00    -0.776 OA
ATOM     48  H   UNK d   0      -2.252   9.662 -13.187  0.00  0.00     0.167 HD
ENDBRANCH  45  47
ENDBRANCH  44  45
ENDBRANCH  43  44
ENDBRANCH  27  43
BRANCH  24  49
ATOM     49  C   UNK d   0       0.946   6.700 -17.776  0.00  0.00     0.052 C 
BRANCH  49  50
ATOM     50  C   UNK d   0       0.950   6.358 -16.308  0.00  0.00     0.115 C 
BRANCH  50  51
ATOM     51  C   UNK d   0       0.605   7.424 -15.376  0.00  0.00     0.139 C 
ATOM     52  O   UNK d   0       1.443   8.262 -14.967  0.00  0.00    -0.650 OA
BRANCH  51  53
ATOM     53  O   UNK d   0      -0.696   7.532 -14.908  0.00  0.00    -0.776 OA
ATOM     54  H   UNK d   0      -1.276   8.263 -15.281  0.00  0.00     0.167 HD
ENDBRANCH  51  53
ENDBRANCH  50  51
ENDBRANCH  49  50
ENDBRANCH  24  49
BRANCH  21  55
ATOM     55  C   UNK d   0       1.626   4.111 -19.319  0.00  0.00     0.151 C 
BRANCH  55  56
ATOM     56  C   UNK d   0       2.003   3.275 -18.169  0.00  0.00     0.143 C 
ATOM     57  O   UNK d   0       1.448   2.188 -17.914  0.00  0.00    -0.650 OA
BRANCH  56  58
ATOM     58  O   UNK d   0       3.025   3.734 -17.340  0.00  0.00    -0.776 OA
ATOM     59  H   UNK d   0       3.635   2.994 -16.949  0.00  0.00     0.167 HD
ENDBRANCH  56  58
ENDBRANCH  55  56
ENDBRANCH  21  55
BRANCH  18  60
ATOM     60  C   UNK d   0      -1.348   2.038 -23.277  0.00  0.00     0.151 C 
BRANCH  60  61
ATOM     61  C   UNK d   0      -0.887   0.684 -22.936  0.00  0.00     0.143 C 
ATOM     62  O   UNK d   0      -1.387  -0.086 -22.115  0.00  0.00    -0.650 OA
BRANCH  61  63
ATOM     63  O   UNK d   0       0.257   0.241 -23.643  0.00  0.00    -0.776 OA
ATOM     64  H   UNK d   0       1.041  -0.161 -23.160  0.00  0.00     0.167 HD
ENDBRANCH  61  63
ENDBRANCH  60  61
ENDBRANCH  18  60
BRANCH  14  65
ATOM     65  C   UNK d   0      -4.247   1.514 -24.005  0.00  0.00     0.052 C 
BRANCH  65  66
ATOM     66  C   UNK d   0      -4.756   0.124 -23.857  0.00  0.00     0.115 C 
BRANCH  66  67
ATOM     67  C   UNK d   0      -3.950  -0.980 -24.295  0.00  0.00     0.139 C 
ATOM     68  O   UNK d   0      -3.888  -1.233 -25.554  0.00  0.00    -0.650 OA
BRANCH  67  69
ATOM     69  O   UNK d   0      -3.195  -1.850 -23.510  0.00  0.00    -0.776 OA
ATOM     70  H   UNK d   0      -2.278  -1.495 -23.202  0.00  0.00     0.167 HD
ENDBRANCH  67  69
ENDBRANCH  66  67
ENDBRANCH  65  66
ENDBRANCH  14  65
ENDBRANCH   6   7
ENDBRANCH   5   6
ENDBRANCH   2   5
TORSDOF 28
ENDMDL
MODEL 16
REMARK VINA RESULT:      -7.3     20.978     23.853
REMARK  28 active torsions:
REMARK  status: ('A' for Active; 'I' for Inactive)
REMARK    1  A    between atoms: C_2  and  O_3 
REMARK    2  A    between atoms: C_2  and  C_4 
REMARK    3  A    between atoms: C_4  and  C_5 
REMARK    4  A    between atoms: C_5  and  C_6 
REMARK    5  A    between atoms: C_7  and  C_8 
REMARK    6  A    between atoms: C_8  and  C_9 
REMARK    7  A    between atoms: C_9  and  O_11 
REMARK    8  A    between atoms: C_28  and  C_29 
REMARK    9  A    between atoms: C_29  and  C_30 
REMARK   10  A    between atoms: C_30  and  O_32 
REMARK   11  A    between atoms: C_33  and  C_34 
REMARK   12  A    between atoms: C_34  and  C_35 
REMARK   13  A    between atoms: C_35  and  C_36 
REMARK   14  A    between atoms: C_36  and  O_38 
REMARK   15  A    between atoms: C_39  and  C_40 
REMARK   16  A    between atoms: C_40  and  C_41 
REMARK   17  A    between atoms: C_41  and  C_42 
REMARK   18  A    between atoms: C_42  and  O_44 
REMARK   19  A    between atoms: C_45  and  C_46 
REMARK   20  A    between atoms: C_46  and  C_47 
REMARK   21  A    between atoms: C_47  and  O_49 
REMARK   22  A    between atoms: C_50  and  C_51 
REMARK   23  A    between atoms: C_51  and  C_52 
REMARK   24  A    between atoms: C_52  and  O_54 
REMARK   25  A    between atoms: C_55  and  C_56 
REMARK   26  A    between atoms: C_56  and  C_57 
REMARK   27  A    between atoms: C_57  and  C_58 
REMARK   28  A    between atoms: C_58  and  O_60 
ROOT
ATOM      1  O   UNK d   0     -10.897   6.233 -23.146  0.00  0.00    -0.650 OA
ATOM      2  C   UNK d   0     -10.635   7.319 -22.582  0.00  0.00     0.139 C 
ENDROOT
BRANCH   2   3
ATOM      3  O   UNK d   0     -11.048   8.495 -23.161  0.00  0.00    -0.776 OA
ATOM      4  H   UNK d   0     -10.848   8.699 -24.142  0.00  0.00     0.167 HD
ENDBRANCH   2   3
BRANCH   2   5
ATOM      5  C   UNK d   0      -9.882   7.333 -21.296  0.00  0.00     0.115 C 
BRANCH   5   6
ATOM      6  C   UNK d   0      -9.930   5.973 -20.654  0.00  0.00     0.052 C 
BRANCH   6   7
ATOM      7  C   UNK d   0      -8.592   5.275 -20.669  0.00  0.00    -0.020 A 
ATOM      8  C   UNK d   0      -8.279   4.162 -21.283  0.00  0.00    -0.011 A 
ATOM      9  C   UNK d   0      -6.881   3.877 -21.003  0.00  0.00     0.067 A 
ATOM     10  C   UNK d   0      -5.959   2.883 -21.363  0.00  0.00     0.062 C 
ATOM     11  N   UNK d   0      -6.423   4.865 -20.206  0.00  0.00    -0.248 NA
ATOM     12  C   UNK d   0      -4.568   2.925 -21.219  0.00  0.00     0.041 A 
ATOM     13  N   UNK d   0      -3.795   3.352 -20.202  0.00  0.00    -0.355 N 
ATOM     14  C   UNK d   0      -3.759   2.520 -22.296  0.00  0.00    -0.022 A 
ATOM     15  C   UNK d   0      -2.517   3.235 -20.610  0.00  0.00     0.042 A 
ATOM     16  H   UNK d   0      -4.145   3.710 -19.209  0.00  0.00     0.166 HD
ATOM     17  C   UNK d   0      -1.314   3.538 -19.941  0.00  0.00     0.062 C 
ATOM     18  C   UNK d   0      -2.454   2.717 -21.918  0.00  0.00    -0.013 A 
ATOM     19  C   UNK d   0      -0.995   4.646 -19.199  0.00  0.00     0.067 A 
ATOM     20  N   UNK d   0      -1.996   5.473 -18.886  0.00  0.00    -0.248 NA
ATOM     21  C   UNK d   0       0.219   5.210 -18.633  0.00  0.00    -0.011 A 
ATOM     22  C   UNK d   0      -1.524   6.538 -18.158  0.00  0.00     0.066 A 
ATOM     23  C   UNK d   0      -2.469   7.460 -17.733  0.00  0.00     0.062 C 
ATOM     24  C   UNK d   0      -0.097   6.320 -18.030  0.00  0.00    -0.020 A 
ATOM     25  C   UNK d   0      -3.863   7.392 -17.877  0.00  0.00     0.041 A 
ATOM     26  N   UNK d   0      -4.632   6.982 -18.893  0.00  0.00    -0.355 N 
ATOM     27  C   UNK d   0      -4.674   7.795 -16.793  0.00  0.00    -0.022 A 
ATOM     28  C   UNK d   0      -5.907   7.106 -18.492  0.00  0.00     0.042 A 
ATOM     29  H   UNK d   0      -4.279   6.633 -19.894  0.00  0.00     0.166 HD
ATOM     30  C   UNK d   0      -7.113   6.818 -19.150  0.00  0.00     0.062 C 
ATOM     31  C   UNK d   0      -5.968   7.616 -17.174  0.00  0.00    -0.013 A 
ATOM     32  C   UNK d   0      -7.403   5.738 -19.969  0.00  0.00     0.066 A 
BRANCH   8  33
ATOM     33  C   UNK d   0      -9.169   3.327 -22.110  0.00  0.00     0.151 C 
BRANCH  33  34
ATOM     34  C   UNK d   0      -8.833   3.383 -23.545  0.00  0.00     0.143 C 
ATOM     35  O   UNK d   0      -8.787   2.350 -24.228  0.00  0.00    -0.650 OA
BRANCH  34  36
ATOM     36  O   UNK d   0      -8.567   4.600 -24.129  0.00  0.00    -0.776 OA
ATOM     37  H   UNK d   0      -9.287   5.333 -24.188  0.00  0.00     0.167 HD
ENDBRANCH  34  36
ENDBRANCH  33  34
ENDBRANCH   8  33
BRANCH  31  38
ATOM     38  C   UNK d   0      -7.192   7.900 -16.333  0.00  0.00     0.151 C 
BRANCH  38  39
ATOM     39  C   UNK d   0      -7.620   9.280 -16.412  0.00  0.00     0.143 C 
ATOM     40  O   UNK d   0      -8.001   9.799 -17.476  0.00  0.00    -0.650 OA
BRANCH  39  41
ATOM     41  O   UNK d   0      -7.610  10.068 -15.262  0.00  0.00    -0.776 OA
ATOM     42  H   UNK d   0      -8.102   9.697 -14.444  0.00  0.00     0.167 HD
ENDBRANCH  39  41
ENDBRANCH  38  39
ENDBRANCH  31  38
BRANCH  27  43
ATOM     43  C   UNK d   0      -4.271   8.332 -15.443  0.00  0.00     0.052 C 
BRANCH  43  44
ATOM     44  C   UNK d   0      -4.086   9.815 -15.428  0.00  0.00     0.115 C 
BRANCH  44  45
ATOM     45  C   UNK d   0      -2.950  10.092 -14.511  0.00  0.00     0.139 C 
ATOM     46  O   UNK d   0      -1.865  10.479 -15.012  0.00  0.00    -0.650 OA
BRANCH  45  47
ATOM     47  O   UNK d   0      -3.041   9.946 -13.144  0.00  0.00    -0.776 OA
ATOM     48  H   UNK d   0      -3.719   9.313 -12.691  0.00  0.00     0.167 HD
ENDBRANCH  45  47
ENDBRANCH  44  45
ENDBRANCH  43  44
ENDBRANCH  27  43
BRANCH  24  49
ATOM     49  C   UNK d   0       0.825   7.197 -17.287  0.00  0.00     0.052 C 
BRANCH  49  50
ATOM     50  C   UNK d   0       0.682   6.972 -15.804  0.00  0.00     0.115 C 
BRANCH  50  51
ATOM     51  C   UNK d   0       1.909   6.872 -15.025  0.00  0.00     0.139 C 
ATOM     52  O   UNK d   0       2.795   7.759 -15.042  0.00  0.00    -0.650 OA
BRANCH  51  53
ATOM     53  O   UNK d   0       2.129   5.758 -14.230  0.00  0.00    -0.776 OA
ATOM     54  H   UNK d   0       2.999   5.693 -13.732  0.00  0.00     0.167 HD
ENDBRANCH  51  53
ENDBRANCH  50  51
ENDBRANCH  49  50
ENDBRANCH  24  49
BRANCH  21  55
ATOM     55  C   UNK d   0       1.567   4.580 -18.752  0.00  0.00     0.151 C 
BRANCH  55  56
ATOM     56  C   UNK d   0       1.729   3.446 -17.830  0.00  0.00     0.143 C 
ATOM     57  O   UNK d   0       1.616   2.259 -18.195  0.00  0.00    -0.650 OA
BRANCH  56  58
ATOM     58  O   UNK d   0       2.020   3.729 -16.497  0.00  0.00    -0.776 OA
ATOM     59  H   UNK d   0       3.007   3.984 -16.311  0.00  0.00     0.167 HD
ENDBRANCH  56  58
ENDBRANCH  55  56
ENDBRANCH  21  55
BRANCH  18  60
ATOM     60  C   UNK d   0      -1.251   2.422 -22.778  0.00  0.00     0.151 C 
BRANCH  60  61
ATOM     61  C   UNK d   0      -0.734   1.124 -22.318  0.00  0.00     0.143 C 
ATOM     62  O   UNK d   0      -1.370   0.078 -22.182  0.00  0.00    -0.650 OA
BRANCH  61  63
ATOM     63  O   UNK d   0       0.646   1.101 -22.005  0.00  0.00    -0.776 OA
ATOM     64  H   UNK d   0       1.207   1.932 -22.074  0.00  0.00     0.167 HD
ENDBRANCH  61  63
ENDBRANCH  60  61
ENDBRANCH  18  60
BRANCH  14  65
ATOM     65  C   UNK d   0      -4.119   1.875 -23.605  0.00  0.00     0.052 C 
BRANCH  65  66
ATOM     66  C   UNK d   0      -4.145   2.837 -24.739  0.00  0.00     0.115 C 
BRANCH  66  67
ATOM     67  C   UNK d   0      -5.266   3.720 -24.898  0.00  0.00     0.139 C 
ATOM     68  O   UNK d   0      -6.125   3.461 -25.819  0.00  0.00    -0.650 OA
BRANCH  67  69
ATOM     69  O   UNK d   0      -5.560   4.867 -24.162  0.00  0.00    -0.776 OA
ATOM     70  H   UNK d   0      -6.369   5.415 -24.489  0.00  0.00     0.167 HD
ENDBRANCH  67  69
ENDBRANCH  66  67
ENDBRANCH  65  66
ENDBRANCH  14  65
ENDBRANCH   6   7
ENDBRANCH   5   6
ENDBRANCH   2   5
TORSDOF 28
ENDMDL
MODEL 17
REMARK VINA RESULT:      -7.3     16.025     19.370
REMARK  28 active torsions:
REMARK  status: ('A' for Active; 'I' for Inactive)
REMARK    1  A    between atoms: C_2  and  O_3 
REMARK    2  A    between atoms: C_2  and  C_4 
REMARK    3  A    between atoms: C_4  and  C_5 
REMARK    4  A    between atoms: C_5  and  C_6 
REMARK    5  A    between atoms: C_7  and  C_8 
REMARK    6  A    between atoms: C_8  and  C_9 
REMARK    7  A    between atoms: C_9  and  O_11 
REMARK    8  A    between atoms: C_28  and  C_29 
REMARK    9  A    between atoms: C_29  and  C_30 
REMARK   10  A    between atoms: C_30  and  O_32 
REMARK   11  A    between atoms: C_33  and  C_34 
REMARK   12  A    between atoms: C_34  and  C_35 
REMARK   13  A    between atoms: C_35  and  C_36 
REMARK   14  A    between atoms: C_36  and  O_38 
REMARK   15  A    between atoms: C_39  and  C_40 
REMARK   16  A    between atoms: C_40  and  C_41 
REMARK   17  A    between atoms: C_41  and  C_42 
REMARK   18  A    between atoms: C_42  and  O_44 
REMARK   19  A    between atoms: C_45  and  C_46 
REMARK   20  A    between atoms: C_46  and  C_47 
REMARK   21  A    between atoms: C_47  and  O_49 
REMARK   22  A    between atoms: C_50  and  C_51 
REMARK   23  A    between atoms: C_51  and  C_52 
REMARK   24  A    between atoms: C_52  and  O_54 
REMARK   25  A    between atoms: C_55  and  C_56 
REMARK   26  A    between atoms: C_56  and  C_57 
REMARK   27  A    between atoms: C_57  and  C_58 
REMARK   28  A    between atoms: C_58  and  O_60 
ROOT
ATOM      1  O   UNK d   0      13.316  -5.993 -13.914  0.00  0.00    -0.650 OA
ATOM      2  C   UNK d   0      13.265  -4.967 -13.201  0.00  0.00     0.139 C 
ENDROOT
BRANCH   2   3
ATOM      3  O   UNK d   0      13.841  -4.985 -11.953  0.00  0.00    -0.776 OA
ATOM      4  H   UNK d   0      13.360  -4.587 -11.144  0.00  0.00     0.167 HD
ENDBRANCH   2   3
BRANCH   2   5
ATOM      5  C   UNK d   0      12.585  -3.739 -13.702  0.00  0.00     0.115 C 
BRANCH   5   6
ATOM      6  C   UNK d   0      11.293  -3.523 -12.962  0.00  0.00     0.052 C 
BRANCH   6   7
ATOM      7  C   UNK d   0      10.081  -3.728 -13.838  0.00  0.00    -0.020 A 
ATOM      8  C   UNK d   0       9.555  -2.879 -14.684  0.00  0.00    -0.011 A 
ATOM      9  C   UNK d   0       8.396  -3.515 -15.289  0.00  0.00     0.067 A 
ATOM     10  C   UNK d   0       7.440  -3.166 -16.256  0.00  0.00     0.062 C 
ATOM     11  N   UNK d   0       8.287  -4.747 -14.749  0.00  0.00    -0.248 NA
ATOM     12  C   UNK d   0       6.553  -4.023 -16.917  0.00  0.00     0.041 A 
ATOM     13  N   UNK d   0       5.802  -5.044 -16.463  0.00  0.00    -0.355 N 
ATOM     14  C   UNK d   0       6.398  -3.899 -18.310  0.00  0.00    -0.022 A 
ATOM     15  C   UNK d   0       5.182  -5.577 -17.533  0.00  0.00     0.042 A 
ATOM     16  H   UNK d   0       5.698  -5.370 -15.404  0.00  0.00     0.166 HD
ATOM     17  C   UNK d   0       4.284  -6.659 -17.622  0.00  0.00     0.062 C 
ATOM     18  C   UNK d   0       5.531  -4.885 -18.709  0.00  0.00    -0.013 A 
ATOM     19  C   UNK d   0       4.359  -7.893 -17.029  0.00  0.00     0.067 A 
ATOM     20  N   UNK d   0       5.287  -8.054 -16.082  0.00  0.00    -0.248 NA
ATOM     21  C   UNK d   0       3.666  -9.163 -17.168  0.00  0.00    -0.011 A 
ATOM     22  C   UNK d   0       5.253  -9.337 -15.594  0.00  0.00     0.066 A 
ATOM     23  C   UNK d   0       6.144  -9.632 -14.573  0.00  0.00     0.062 C 
ATOM     24  C   UNK d   0       4.196 -10.005 -16.328  0.00  0.00    -0.020 A 
ATOM     25  C   UNK d   0       7.018  -8.754 -13.913  0.00  0.00     0.041 A 
ATOM     26  N   UNK d   0       7.776  -7.748 -14.367  0.00  0.00    -0.355 N 
ATOM     27  C   UNK d   0       7.169  -8.876 -12.515  0.00  0.00    -0.022 A 
ATOM     28  C   UNK d   0       8.403  -7.221 -13.303  0.00  0.00     0.042 A 
ATOM     29  H   UNK d   0       7.888  -7.429 -15.432  0.00  0.00     0.166 HD
ATOM     30  C   UNK d   0       9.305  -6.150 -13.201  0.00  0.00     0.062 C 
ATOM     31  C   UNK d   0       8.043  -7.909 -12.121  0.00  0.00    -0.013 A 
ATOM     32  C   UNK d   0       9.271  -4.937 -13.869  0.00  0.00     0.066 A 
BRANCH   8  33
ATOM     33  C   UNK d   0      10.032  -1.516 -14.982  0.00  0.00     0.151 C 
BRANCH  33  34
ATOM     34  C   UNK d   0       9.307  -0.480 -14.224  0.00  0.00     0.143 C 
ATOM     35  O   UNK d   0       9.580  -0.251 -13.037  0.00  0.00    -0.650 OA
BRANCH  34  36
ATOM     36  O   UNK d   0       8.314   0.241 -14.846  0.00  0.00    -0.776 OA
ATOM     37  H   UNK d   0       8.080   0.085 -15.836  0.00  0.00     0.167 HD
ENDBRANCH  34  36
ENDBRANCH  33  34
ENDBRANCH   8  33
BRANCH  31  38
ATOM     38  C   UNK d   0       8.500  -7.644 -10.705  0.00  0.00     0.151 C 
BRANCH  38  39
ATOM     39  C   UNK d   0       7.707  -6.633 -10.039  0.00  0.00     0.143 C 
ATOM     40  O   UNK d   0       6.487  -6.504 -10.241  0.00  0.00    -0.650 OA
BRANCH  39  41
ATOM     41  O   UNK d   0       8.321  -5.766  -9.135  0.00  0.00    -0.776 OA
ATOM     42  H   UNK d   0       9.334  -5.861  -9.019  0.00  0.00     0.167 HD
ENDBRANCH  39  41
ENDBRANCH  38  39
ENDBRANCH  31  38
BRANCH  27  43
ATOM     43  C   UNK d   0       6.530  -9.856 -11.564  0.00  0.00     0.052 C 
BRANCH  43  44
ATOM     44  C   UNK d   0       5.094  -9.554 -11.281  0.00  0.00     0.115 C 
BRANCH  44  45
ATOM     45  C   UNK d   0       4.909  -9.706  -9.815  0.00  0.00     0.139 C 
ATOM     46  O   UNK d   0       3.962 -10.424  -9.409  0.00  0.00    -0.650 OA
BRANCH  45  47
ATOM     47  O   UNK d   0       5.731  -9.098  -8.891  0.00  0.00    -0.776 OA
ATOM     48  H   UNK d   0       6.624  -8.647  -9.147  0.00  0.00     0.167 HD
ENDBRANCH  45  47
ENDBRANCH  44  45
ENDBRANCH  43  44
ENDBRANCH  27  43
BRANCH  24  49
ATOM     49  C   UNK d   0       3.772 -11.398 -16.110  0.00  0.00     0.052 C 
BRANCH  49  50
ATOM     50  C   UNK d   0       2.787 -11.474 -14.972  0.00  0.00     0.115 C 
BRANCH  50  51
ATOM     51  C   UNK d   0       1.372 -11.384 -15.309  0.00  0.00     0.139 C 
ATOM     52  O   UNK d   0       0.876 -11.962 -16.305  0.00  0.00    -0.650 OA
BRANCH  51  53
ATOM     53  O   UNK d   0       0.523 -10.632 -14.512  0.00  0.00    -0.776 OA
ATOM     54  H   UNK d   0       0.919  -9.886 -13.967  0.00  0.00     0.167 HD
ENDBRANCH  51  53
ENDBRANCH  50  51
ENDBRANCH  49  50
ENDBRANCH  24  49
BRANCH  21  55
ATOM     55  C   UNK d   0       2.543  -9.401 -18.122  0.00  0.00     0.151 C 
BRANCH  55  56
ATOM     56  C   UNK d   0       3.004  -9.439 -19.518  0.00  0.00     0.143 C 
ATOM     57  O   UNK d   0       2.751  -8.535 -20.338  0.00  0.00    -0.650 OA
BRANCH  56  58
ATOM     58  O   UNK d   0       3.756 -10.541 -19.924  0.00  0.00    -0.776 OA
ATOM     59  H   UNK d   0       3.224 -11.267 -20.437  0.00  0.00     0.167 HD
ENDBRANCH  56  58
ENDBRANCH  55  56
ENDBRANCH  21  55
BRANCH  18  60
ATOM     60  C   UNK d   0       5.089  -5.125 -20.131  0.00  0.00     0.151 C 
BRANCH  60  61
ATOM     61  C   UNK d   0       3.733  -4.564 -20.232  0.00  0.00     0.143 C 
ATOM     62  O   UNK d   0       3.414  -3.377 -20.166  0.00  0.00    -0.650 OA
BRANCH  61  63
ATOM     63  O   UNK d   0       2.702  -5.514 -20.428  0.00  0.00    -0.776 OA
ATOM     64  H   UNK d   0       2.791  -6.243 -21.113  0.00  0.00     0.167 HD
ENDBRANCH  61  63
ENDBRANCH  60  61
ENDBRANCH  18  60
BRANCH  14  65
ATOM     65  C   UNK d   0       6.926  -2.869 -19.268  0.00  0.00     0.052 C 
BRANCH  65  66
ATOM     66  C   UNK d   0       6.219  -1.563 -19.165  0.00  0.00     0.115 C 
BRANCH  66  67
ATOM     67  C   UNK d   0       6.901  -0.427 -18.613  0.00  0.00     0.139 C 
ATOM     68  O   UNK d   0       6.576  -0.028 -17.435  0.00  0.00    -0.650 OA
BRANCH  67  69
ATOM     69  O   UNK d   0       7.908   0.335 -19.206  0.00  0.00    -0.776 OA
ATOM     70  H   UNK d   0       8.589   0.759 -18.559  0.00  0.00     0.167 HD
ENDBRANCH  67  69
ENDBRANCH  66  67
ENDBRANCH  65  66
ENDBRANCH  14  65
ENDBRANCH   6   7
ENDBRANCH   5   6
ENDBRANCH   2   5
TORSDOF 28
ENDMDL
MODEL 18
REMARK VINA RESULT:      -7.3      7.077     12.619
REMARK  28 active torsions:
REMARK  status: ('A' for Active; 'I' for Inactive)
REMARK    1  A    between atoms: C_2  and  O_3 
REMARK    2  A    between atoms: C_2  and  C_4 
REMARK    3  A    between atoms: C_4  and  C_5 
REMARK    4  A    between atoms: C_5  and  C_6 
REMARK    5  A    between atoms: C_7  and  C_8 
REMARK    6  A    between atoms: C_8  and  C_9 
REMARK    7  A    between atoms: C_9  and  O_11 
REMARK    8  A    between atoms: C_28  and  C_29 
REMARK    9  A    between atoms: C_29  and  C_30 
REMARK   10  A    between atoms: C_30  and  O_32 
REMARK   11  A    between atoms: C_33  and  C_34 
REMARK   12  A    between atoms: C_34  and  C_35 
REMARK   13  A    between atoms: C_35  and  C_36 
REMARK   14  A    between atoms: C_36  and  O_38 
REMARK   15  A    between atoms: C_39  and  C_40 
REMARK   16  A    between atoms: C_40  and  C_41 
REMARK   17  A    between atoms: C_41  and  C_42 
REMARK   18  A    between atoms: C_42  and  O_44 
REMARK   19  A    between atoms: C_45  and  C_46 
REMARK   20  A    between atoms: C_46  and  C_47 
REMARK   21  A    between atoms: C_47  and  O_49 
REMARK   22  A    between atoms: C_50  and  C_51 
REMARK   23  A    between atoms: C_51  and  C_52 
REMARK   24  A    between atoms: C_52  and  O_54 
REMARK   25  A    between atoms: C_55  and  C_56 
REMARK   26  A    between atoms: C_56  and  C_57 
REMARK   27  A    between atoms: C_57  and  C_58 
REMARK   28  A    between atoms: C_58  and  O_60 
ROOT
ATOM      1  O   UNK d   0       2.847  18.916 -10.566  0.00  0.00    -0.650 OA
ATOM      2  C   UNK d   0       2.994  19.204  -9.357  0.00  0.00     0.139 C 
ENDROOT
BRANCH   2   3
ATOM      3  O   UNK d   0       1.888  19.288  -8.546  0.00  0.00    -0.776 OA
ATOM      4  H   UNK d   0       1.971  19.207  -7.531  0.00  0.00     0.167 HD
ENDBRANCH   2   3
BRANCH   2   5
ATOM      5  C   UNK d   0       4.356  19.454  -8.807  0.00  0.00     0.115 C 
BRANCH   5   6
ATOM      6  C   UNK d   0       4.521  18.746  -7.490  0.00  0.00     0.052 C 
BRANCH   6   7
ATOM      7  C   UNK d   0       5.407  17.528  -7.592  0.00  0.00    -0.020 A 
ATOM      8  C   UNK d   0       5.045  16.297  -7.849  0.00  0.00    -0.011 A 
ATOM      9  C   UNK d   0       6.241  15.470  -7.837  0.00  0.00     0.067 A 
ATOM     10  C   UNK d   0       6.537  14.115  -8.051  0.00  0.00     0.062 C 
ATOM     11  N   UNK d   0       7.284  16.279  -7.558  0.00  0.00    -0.248 NA
ATOM     12  C   UNK d   0       7.796  13.547  -8.272  0.00  0.00     0.041 A 
ATOM     13  N   UNK d   0       8.985  13.770  -7.679  0.00  0.00    -0.355 N 
ATOM     14  C   UNK d   0       7.949  12.611  -9.310  0.00  0.00    -0.022 A 
ATOM     15  C   UNK d   0       9.889  13.005  -8.320  0.00  0.00     0.042 A 
ATOM     16  H   UNK d   0       9.178  14.440  -6.813  0.00  0.00     0.166 HD
ATOM     17  C   UNK d   0      11.273  12.854  -8.106  0.00  0.00     0.062 C 
ATOM     18  C   UNK d   0       9.276  12.264  -9.349  0.00  0.00    -0.013 A 
ATOM     19  C   UNK d   0      12.222  13.820  -7.884  0.00  0.00     0.067 A 
ATOM     20  N   UNK d   0      11.780  15.056  -7.637  0.00  0.00    -0.248 NA
ATOM     21  C   UNK d   0      13.674  13.871  -7.856  0.00  0.00    -0.011 A 
ATOM     22  C   UNK d   0      12.838  15.911  -7.451  0.00  0.00     0.066 A 
ATOM     23  C   UNK d   0      12.521  17.227  -7.147  0.00  0.00     0.062 C 
ATOM     24  C   UNK d   0      14.028  15.098  -7.606  0.00  0.00    -0.020 A 
ATOM     25  C   UNK d   0      11.249  17.774  -6.917  0.00  0.00     0.041 A 
ATOM     26  N   UNK d   0      10.070  17.564  -7.516  0.00  0.00    -0.355 N 
ATOM     27  C   UNK d   0      11.096  18.711  -5.872  0.00  0.00    -0.022 A 
ATOM     28  C   UNK d   0       9.169  18.333  -6.884  0.00  0.00     0.042 A 
ATOM     29  H   UNK d   0       9.880  16.898  -8.393  0.00  0.00     0.166 HD
ATOM     30  C   UNK d   0       7.791  18.499  -7.092  0.00  0.00     0.062 C 
ATOM     31  C   UNK d   0       9.783  19.069  -5.843  0.00  0.00    -0.013 A 
ATOM     32  C   UNK d   0       6.850  17.530  -7.401  0.00  0.00     0.066 A 
BRANCH   8  33
ATOM     33  C   UNK d   0       3.676  15.811  -8.103  0.00  0.00     0.151 C 
BRANCH  33  34
ATOM     34  C   UNK d   0       3.438  15.493  -9.522  0.00  0.00     0.143 C 
ATOM     35  O   UNK d   0       2.645  14.598  -9.849  0.00  0.00    -0.650 OA
BRANCH  34  36
ATOM     36  O   UNK d   0       4.107  16.199 -10.495  0.00  0.00    -0.776 OA
ATOM     37  H   UNK d   0       3.870  16.093 -11.491  0.00  0.00     0.167 HD
ENDBRANCH  34  36
ENDBRANCH  33  34
ENDBRANCH   8  33
BRANCH  31  38
ATOM     38  C   UNK d   0       9.145  20.041  -4.879  0.00  0.00     0.151 C 
BRANCH  38  39
ATOM     39  C   UNK d   0       8.931  19.471  -3.566  0.00  0.00     0.143 C 
ATOM     40  O   UNK d   0       8.510  18.311  -3.404  0.00  0.00    -0.650 OA
BRANCH  39  41
ATOM     41  O   UNK d   0       9.202  20.236  -2.432  0.00  0.00    -0.776 OA
ATOM     42  H   UNK d   0       8.619  20.063  -1.608  0.00  0.00     0.167 HD
ENDBRANCH  39  41
ENDBRANCH  38  39
ENDBRANCH  31  38
BRANCH  27  43
ATOM     43  C   UNK d   0      12.129  19.266  -4.923  0.00  0.00     0.052 C 
BRANCH  43  44
ATOM     44  C   UNK d   0      12.765  20.526  -5.414  0.00  0.00     0.115 C 
BRANCH  44  45
ATOM     45  C   UNK d   0      14.068  20.647  -4.709  0.00  0.00     0.139 C 
ATOM     46  O   UNK d   0      14.059  21.023  -3.510  0.00  0.00    -0.650 OA
BRANCH  45  47
ATOM     47  O   UNK d   0      15.273  20.359  -5.311  0.00  0.00    -0.776 OA
ATOM     48  H   UNK d   0      15.719  19.429  -5.257  0.00  0.00     0.167 HD
ENDBRANCH  45  47
ENDBRANCH  44  45
ENDBRANCH  43  44
ENDBRANCH  27  43
BRANCH  24  49
ATOM     49  C   UNK d   0      15.408  15.590  -7.451  0.00  0.00     0.052 C 
BRANCH  49  50
ATOM     50  C   UNK d   0      15.812  16.406  -8.652  0.00  0.00     0.115 C 
BRANCH  50  51
ATOM     51  C   UNK d   0      16.018  15.690  -9.904  0.00  0.00     0.139 C 
ATOM     52  O   UNK d   0      15.106  15.529 -10.749  0.00  0.00    -0.650 OA
BRANCH  51  53
ATOM     53  O   UNK d   0      17.264  15.154 -10.191  0.00  0.00    -0.776 OA
ATOM     54  H   UNK d   0      17.923  15.725 -10.690  0.00  0.00     0.167 HD
ENDBRANCH  51  53
ENDBRANCH  50  51
ENDBRANCH  49  50
ENDBRANCH  24  49
BRANCH  21  55
ATOM     55  C   UNK d   0      14.556  12.687  -8.077  0.00  0.00     0.151 C 
BRANCH  55  56
ATOM     56  C   UNK d   0      14.875  11.994  -6.819  0.00  0.00     0.143 C 
ATOM     57  O   UNK d   0      14.069  11.240  -6.240  0.00  0.00    -0.650 OA
BRANCH  56  58
ATOM     58  O   UNK d   0      16.138  12.203  -6.266  0.00  0.00    -0.776 OA
ATOM     59  H   UNK d   0      16.901  12.327  -6.956  0.00  0.00     0.167 HD
ENDBRANCH  56  58
ENDBRANCH  55  56
ENDBRANCH  21  55
BRANCH  18  60
ATOM     60  C   UNK d   0       9.886  11.286 -10.323  0.00  0.00     0.151 C 
BRANCH  60  61
ATOM     61  C   UNK d   0      10.147  12.051 -11.552  0.00  0.00     0.143 C 
ATOM     62  O   UNK d   0      10.739  13.127 -11.646  0.00  0.00    -0.650 OA
BRANCH  61  63
ATOM     63  O   UNK d   0       9.655  11.463 -12.743  0.00  0.00    -0.776 OA
ATOM     64  H   UNK d   0       8.716  11.112 -12.798  0.00  0.00     0.167 HD
ENDBRANCH  61  63
ENDBRANCH  60  61
ENDBRANCH  18  60
BRANCH  14  65
ATOM     65  C   UNK d   0       6.928  11.952 -10.194  0.00  0.00     0.052 C 
BRANCH  65  66
ATOM     66  C   UNK d   0       6.580  12.767 -11.389  0.00  0.00     0.115 C 
BRANCH  66  67
ATOM     67  C   UNK d   0       5.204  13.068 -11.669  0.00  0.00     0.139 C 
ATOM     68  O   UNK d   0       4.937  14.088 -12.404  0.00  0.00    -0.650 OA
BRANCH  67  69
ATOM     69  O   UNK d   0       4.074  12.376 -11.235  0.00  0.00    -0.776 OA
ATOM     70  H   UNK d   0       3.215  12.936 -11.141  0.00  0.00     0.167 HD
ENDBRANCH  67  69
ENDBRANCH  66  67
ENDBRANCH  65  66
ENDBRANCH  14  65
ENDBRANCH   6   7
ENDBRANCH   5   6
ENDBRANCH   2   5
TORSDOF 28
ENDMDL
MODEL 19
REMARK VINA RESULT:      -7.2     25.615     31.440
REMARK  28 active torsions:
REMARK  status: ('A' for Active; 'I' for Inactive)
REMARK    1  A    between atoms: C_2  and  O_3 
REMARK    2  A    between atoms: C_2  and  C_4 
REMARK    3  A    between atoms: C_4  and  C_5 
REMARK    4  A    between atoms: C_5  and  C_6 
REMARK    5  A    between atoms: C_7  and  C_8 
REMARK    6  A    between atoms: C_8  and  C_9 
REMARK    7  A    between atoms: C_9  and  O_11 
REMARK    8  A    between atoms: C_28  and  C_29 
REMARK    9  A    between atoms: C_29  and  C_30 
REMARK   10  A    between atoms: C_30  and  O_32 
REMARK   11  A    between atoms: C_33  and  C_34 
REMARK   12  A    between atoms: C_34  and  C_35 
REMARK   13  A    between atoms: C_35  and  C_36 
REMARK   14  A    between atoms: C_36  and  O_38 
REMARK   15  A    between atoms: C_39  and  C_40 
REMARK   16  A    between atoms: C_40  and  C_41 
REMARK   17  A    between atoms: C_41  and  C_42 
REMARK   18  A    between atoms: C_42  and  O_44 
REMARK   19  A    between atoms: C_45  and  C_46 
REMARK   20  A    between atoms: C_46  and  C_47 
REMARK   21  A    between atoms: C_47  and  O_49 
REMARK   22  A    between atoms: C_50  and  C_51 
REMARK   23  A    between atoms: C_51  and  C_52 
REMARK   24  A    between atoms: C_52  and  O_54 
REMARK   25  A    between atoms: C_55  and  C_56 
REMARK   26  A    between atoms: C_56  and  C_57 
REMARK   27  A    between atoms: C_57  and  C_58 
REMARK   28  A    between atoms: C_58  and  O_60 
ROOT
ATOM      1  O   UNK d   0     -11.033  29.506 -14.192  0.00  0.00    -0.650 OA
ATOM      2  C   UNK d   0     -11.774  29.303 -13.205  0.00  0.00     0.139 C 
ENDROOT
BRANCH   2   3
ATOM      3  O   UNK d   0     -11.392  29.767 -11.969  0.00  0.00    -0.776 OA
ATOM      4  H   UNK d   0     -11.331  29.139 -11.165  0.00  0.00     0.167 HD
ENDBRANCH   2   3
BRANCH   2   5
ATOM      5  C   UNK d   0     -13.057  28.563 -13.371  0.00  0.00     0.115 C 
BRANCH   5   6
ATOM      6  C   UNK d   0     -12.787  27.154 -13.827  0.00  0.00     0.052 C 
BRANCH   6   7
ATOM      7  C   UNK d   0     -12.755  26.170 -12.682  0.00  0.00    -0.020 A 
ATOM      8  C   UNK d   0     -13.749  25.460 -12.212  0.00  0.00    -0.011 A 
ATOM      9  C   UNK d   0     -13.244  24.664 -11.106  0.00  0.00     0.067 A 
ATOM     10  C   UNK d   0     -13.771  23.713 -10.220  0.00  0.00     0.062 C 
ATOM     11  N   UNK d   0     -11.934  24.956 -10.968  0.00  0.00    -0.248 NA
ATOM     12  C   UNK d   0     -13.058  22.840  -9.390  0.00  0.00     0.041 A 
ATOM     13  N   UNK d   0     -11.974  23.041  -8.617  0.00  0.00    -0.355 N 
ATOM     14  C   UNK d   0     -13.440  21.488  -9.336  0.00  0.00    -0.022 A 
ATOM     15  C   UNK d   0     -11.653  21.848  -8.080  0.00  0.00     0.042 A 
ATOM     16  H   UNK d   0     -11.457  24.009  -8.439  0.00  0.00     0.166 HD
ATOM     17  C   UNK d   0     -10.611  21.493  -7.201  0.00  0.00     0.062 C 
ATOM     18  C   UNK d   0     -12.550  20.850  -8.508  0.00  0.00    -0.013 A 
ATOM     19  C   UNK d   0      -9.287  21.850  -7.243  0.00  0.00     0.067 A 
ATOM     20  N   UNK d   0      -8.949  22.815  -8.101  0.00  0.00    -0.248 NA
ATOM     21  C   UNK d   0      -8.069  21.427  -6.572  0.00  0.00    -0.011 A 
ATOM     22  C   UNK d   0      -7.597  23.053  -8.042  0.00  0.00     0.066 A 
ATOM     23  C   UNK d   0      -7.112  24.063  -8.860  0.00  0.00     0.062 C 
ATOM     24  C   UNK d   0      -7.083  22.131  -7.048  0.00  0.00    -0.020 A 
ATOM     25  C   UNK d   0      -7.848  24.936  -9.676  0.00  0.00     0.041 A 
ATOM     26  N   UNK d   0      -8.916  24.734 -10.456  0.00  0.00    -0.355 N 
ATOM     27  C   UNK d   0      -7.466  26.295  -9.727  0.00  0.00    -0.022 A 
ATOM     28  C   UNK d   0      -9.233  25.920 -11.000  0.00  0.00     0.042 A 
ATOM     29  H   UNK d   0      -9.428  23.758 -10.642  0.00  0.00     0.166 HD
ATOM     30  C   UNK d   0     -10.260  26.286 -11.883  0.00  0.00     0.062 C 
ATOM     31  C   UNK d   0      -8.338  26.925 -10.561  0.00  0.00    -0.013 A 
ATOM     32  C   UNK d   0     -11.578  25.855 -11.887  0.00  0.00     0.066 A 
BRANCH   8  33
ATOM     33  C   UNK d   0     -15.142  25.457 -12.698  0.00  0.00     0.151 C 
BRANCH  33  34
ATOM     34  C   UNK d   0     -15.875  26.684 -12.337  0.00  0.00     0.143 C 
ATOM     35  O   UNK d   0     -15.807  27.152 -11.192  0.00  0.00    -0.650 OA
BRANCH  34  36
ATOM     36  O   UNK d   0     -16.644  27.315 -13.287  0.00  0.00    -0.776 OA
ATOM     37  H   UNK d   0     -17.613  27.021 -13.471  0.00  0.00     0.167 HD
ENDBRANCH  34  36
ENDBRANCH  33  34
ENDBRANCH   8  33
BRANCH  31  38
ATOM     38  C   UNK d   0      -8.332  28.394 -10.912  0.00  0.00     0.151 C 
BRANCH  38  39
ATOM     39  C   UNK d   0      -7.619  28.675 -12.141  0.00  0.00     0.143 C 
ATOM     40  O   UNK d   0      -6.386  28.831 -12.174  0.00  0.00    -0.650 OA
BRANCH  39  41
ATOM     41  O   UNK d   0      -8.329  28.776 -13.337  0.00  0.00    -0.776 OA
ATOM     42  H   UNK d   0      -7.845  29.220 -14.124  0.00  0.00     0.167 HD
ENDBRANCH  39  41
ENDBRANCH  38  39
ENDBRANCH  31  38
BRANCH  27  43
ATOM     43  C   UNK d   0      -6.329  26.997  -9.028  0.00  0.00     0.052 C 
BRANCH  43  44
ATOM     44  C   UNK d   0      -5.038  26.919  -9.776  0.00  0.00     0.115 C 
BRANCH  44  45
ATOM     45  C   UNK d   0      -4.143  26.033  -8.985  0.00  0.00     0.139 C 
ATOM     46  O   UNK d   0      -4.358  25.924  -7.753  0.00  0.00    -0.650 OA
BRANCH  45  47
ATOM     47  O   UNK d   0      -3.100  25.330  -9.548  0.00  0.00    -0.776 OA
ATOM     48  H   UNK d   0      -2.606  25.645 -10.399  0.00  0.00     0.167 HD
ENDBRANCH  45  47
ENDBRANCH  44  45
ENDBRANCH  43  44
ENDBRANCH  27  43
BRANCH  24  49
ATOM     49  C   UNK d   0      -5.676  22.055  -6.620  0.00  0.00     0.052 C 
BRANCH  49  50
ATOM     50  C   UNK d   0      -4.845  21.366  -7.672  0.00  0.00     0.115 C 
BRANCH  50  51
ATOM     51  C   UNK d   0      -3.964  22.203  -8.476  0.00  0.00     0.139 C 
ATOM     52  O   UNK d   0      -4.160  22.414  -9.696  0.00  0.00    -0.650 OA
BRANCH  51  53
ATOM     53  O   UNK d   0      -2.857  22.796  -7.889  0.00  0.00    -0.776 OA
ATOM     54  H   UNK d   0      -2.421  23.566  -8.366  0.00  0.00     0.167 HD
ENDBRANCH  51  53
ENDBRANCH  50  51
ENDBRANCH  49  50
ENDBRANCH  24  49
BRANCH  21  55
ATOM     55  C   UNK d   0      -8.019  20.366  -5.524  0.00  0.00     0.151 C 
BRANCH  55  56
ATOM     56  C   UNK d   0      -7.663  20.911  -4.204  0.00  0.00     0.143 C 
ATOM     57  O   UNK d   0      -8.297  21.839  -3.665  0.00  0.00    -0.650 OA
BRANCH  56  58
ATOM     58  O   UNK d   0      -6.570  20.353  -3.545  0.00  0.00    -0.776 OA
ATOM     59  H   UNK d   0      -6.623  19.328  -3.402  0.00  0.00     0.167 HD
ENDBRANCH  56  58
ENDBRANCH  55  56
ENDBRANCH  21  55
BRANCH  18  60
ATOM     60  C   UNK d   0     -12.582  19.380  -8.173  0.00  0.00     0.151 C 
BRANCH  60  61
ATOM     61  C   UNK d   0     -13.603  19.227  -7.124  0.00  0.00     0.143 C 
ATOM     62  O   UNK d   0     -14.676  18.631  -7.215  0.00  0.00    -0.650 OA
BRANCH  61  63
ATOM     63  O   UNK d   0     -13.292  19.841  -5.887  0.00  0.00    -0.776 OA
ATOM     64  H   UNK d   0     -13.865  20.578  -5.516  0.00  0.00     0.167 HD
ENDBRANCH  61  63
ENDBRANCH  60  61
ENDBRANCH  18  60
BRANCH  14  65
ATOM     65  C   UNK d   0     -14.628  20.780  -9.922  0.00  0.00     0.052 C 
BRANCH  65  66
ATOM     66  C   UNK d   0     -14.437  20.407 -11.350  0.00  0.00     0.115 C 
BRANCH  66  67
ATOM     67  C   UNK d   0     -14.417  19.022 -11.728  0.00  0.00     0.139 C 
ATOM     68  O   UNK d   0     -15.160  18.642 -12.706  0.00  0.00    -0.650 OA
BRANCH  67  69
ATOM     69  O   UNK d   0     -13.673  17.992 -11.154  0.00  0.00    -0.776 OA
ATOM     70  H   UNK d   0     -14.207  17.309 -10.597  0.00  0.00     0.167 HD
ENDBRANCH  67  69
ENDBRANCH  66  67
ENDBRANCH  65  66
ENDBRANCH  14  65
ENDBRANCH   6   7
ENDBRANCH   5   6
ENDBRANCH   2   5
TORSDOF 28
ENDMDL
MODEL 20
REMARK VINA RESULT:      -7.2     18.989     22.205
REMARK  28 active torsions:
REMARK  status: ('A' for Active; 'I' for Inactive)
REMARK    1  A    between atoms: C_2  and  O_3 
REMARK    2  A    between atoms: C_2  and  C_4 
REMARK    3  A    between atoms: C_4  and  C_5 
REMARK    4  A    between atoms: C_5  and  C_6 
REMARK    5  A    between atoms: C_7  and  C_8 
REMARK    6  A    between atoms: C_8  and  C_9 
REMARK    7  A    between atoms: C_9  and  O_11 
REMARK    8  A    between atoms: C_28  and  C_29 
REMARK    9  A    between atoms: C_29  and  C_30 
REMARK   10  A    between atoms: C_30  and  O_32 
REMARK   11  A    between atoms: C_33  and  C_34 
REMARK   12  A    between atoms: C_34  and  C_35 
REMARK   13  A    between atoms: C_35  and  C_36 
REMARK   14  A    between atoms: C_36  and  O_38 
REMARK   15  A    between atoms: C_39  and  C_40 
REMARK   16  A    between atoms: C_40  and  C_41 
REMARK   17  A    between atoms: C_41  and  C_42 
REMARK   18  A    between atoms: C_42  and  O_44 
REMARK   19  A    between atoms: C_45  and  C_46 
REMARK   20  A    between atoms: C_46  and  C_47 
REMARK   21  A    between atoms: C_47  and  O_49 
REMARK   22  A    between atoms: C_50  and  C_51 
REMARK   23  A    between atoms: C_51  and  C_52 
REMARK   24  A    between atoms: C_52  and  O_54 
REMARK   25  A    between atoms: C_55  and  C_56 
REMARK   26  A    between atoms: C_56  and  C_57 
REMARK   27  A    between atoms: C_57  and  C_58 
REMARK   28  A    between atoms: C_58  and  O_60 
ROOT
ATOM      1  O   UNK d   0      -5.333  10.475 -12.086  0.00  0.00    -0.650 OA
ATOM      2  C   UNK d   0      -6.354  10.149 -12.731  0.00  0.00     0.139 C 
ENDROOT
BRANCH   2   3
ATOM      3  O   UNK d   0      -7.551  10.764 -12.453  0.00  0.00    -0.776 OA
ATOM      4  H   UNK d   0      -8.393  10.218 -12.263  0.00  0.00     0.167 HD
ENDBRANCH   2   3
BRANCH   2   5
ATOM      5  C   UNK d   0      -6.269   9.103 -13.789  0.00  0.00     0.115 C 
BRANCH   5   6
ATOM      6  C   UNK d   0      -5.842   9.719 -15.093  0.00  0.00     0.052 C 
BRANCH   6   7
ATOM      7  C   UNK d   0      -4.576   9.105 -15.640  0.00  0.00    -0.020 A 
ATOM      8  C   UNK d   0      -3.343   9.475 -15.404  0.00  0.00    -0.011 A 
ATOM      9  C   UNK d   0      -2.463   8.595 -16.155  0.00  0.00     0.067 A 
ATOM     10  C   UNK d   0      -1.076   8.447 -16.316  0.00  0.00     0.062 C 
ATOM     11  N   UNK d   0      -3.245   7.722 -16.824  0.00  0.00    -0.248 NA
ATOM     12  C   UNK d   0      -0.400   7.355 -16.869  0.00  0.00     0.041 A 
ATOM     13  N   UNK d   0      -0.662   6.608 -17.959  0.00  0.00    -0.355 N 
ATOM     14  C   UNK d   0       0.733   6.849 -16.205  0.00  0.00    -0.022 A 
ATOM     15  C   UNK d   0       0.270   5.637 -17.999  0.00  0.00     0.042 A 
ATOM     16  H   UNK d   0      -1.478   6.776 -18.696  0.00  0.00     0.166 HD
ATOM     17  C   UNK d   0       0.461   4.592 -18.924  0.00  0.00     0.062 C 
ATOM     18  C   UNK d   0       1.162   5.755 -16.915  0.00  0.00    -0.013 A 
ATOM     19  C   UNK d   0      -0.469   3.747 -19.475  0.00  0.00     0.067 A 
ATOM     20  N   UNK d   0      -1.755   4.054 -19.281  0.00  0.00    -0.248 NA
ATOM     21  C   UNK d   0      -0.435   2.520 -20.252  0.00  0.00    -0.011 A 
ATOM     22  C   UNK d   0      -2.563   3.115 -19.873  0.00  0.00     0.066 A 
ATOM     23  C   UNK d   0      -3.930   3.332 -19.781  0.00  0.00     0.062 C 
ATOM     24  C   UNK d   0      -1.663   2.153 -20.478  0.00  0.00    -0.020 A 
ATOM     25  C   UNK d   0      -4.590   4.443 -19.233  0.00  0.00     0.041 A 
ATOM     26  N   UNK d   0      -4.338   5.175 -18.141  0.00  0.00    -0.355 N 
ATOM     27  C   UNK d   0      -5.723   4.953 -19.902  0.00  0.00    -0.022 A 
ATOM     28  C   UNK d   0      -5.271   6.139 -18.094  0.00  0.00     0.042 A 
ATOM     29  H   UNK d   0      -3.524   4.999 -17.396  0.00  0.00     0.166 HD
ATOM     30  C   UNK d   0      -5.478   7.180 -17.175  0.00  0.00     0.062 C 
ATOM     31  C   UNK d   0      -6.160   6.027 -19.189  0.00  0.00    -0.013 A 
ATOM     32  C   UNK d   0      -4.527   7.975 -16.556  0.00  0.00     0.066 A 
BRANCH   8  33
ATOM     33  C   UNK d   0      -2.903  10.587 -14.541  0.00  0.00     0.151 C 
BRANCH  33  34
ATOM     34  C   UNK d   0      -3.434  11.891 -14.975  0.00  0.00     0.143 C 
ATOM     35  O   UNK d   0      -3.198  12.329 -16.110  0.00  0.00    -0.650 OA
BRANCH  34  36
ATOM     36  O   UNK d   0      -4.201  12.631 -14.104  0.00  0.00    -0.776 OA
ATOM     37  H   UNK d   0      -5.032  13.144 -14.429  0.00  0.00     0.167 HD
ENDBRANCH  34  36
ENDBRANCH  33  34
ENDBRANCH   8  33
BRANCH  31  38
ATOM     38  C   UNK d   0      -7.343   6.903 -19.532  0.00  0.00     0.151 C 
BRANCH  38  39
ATOM     39  C   UNK d   0      -7.012   7.947 -20.478  0.00  0.00     0.143 C 
ATOM     40  O   UNK d   0      -6.299   8.919 -20.174  0.00  0.00    -0.650 OA
BRANCH  39  41
ATOM     41  O   UNK d   0      -7.504   7.873 -21.781  0.00  0.00    -0.776 OA
ATOM     42  H   UNK d   0      -8.469   8.183 -21.929  0.00  0.00     0.167 HD
ENDBRANCH  39  41
ENDBRANCH  38  39
ENDBRANCH  31  38
BRANCH  27  43
ATOM     43  C   UNK d   0      -6.391   4.465 -21.164  0.00  0.00     0.052 C 
BRANCH  43  44
ATOM     44  C   UNK d   0      -7.718   3.824 -20.920  0.00  0.00     0.115 C 
BRANCH  44  45
ATOM     45  C   UNK d   0      -7.996   2.963 -22.099  0.00  0.00     0.139 C 
ATOM     46  O   UNK d   0      -8.815   3.379 -22.956  0.00  0.00    -0.650 OA
BRANCH  45  47
ATOM     47  O   UNK d   0      -7.391   1.740 -22.291  0.00  0.00    -0.776 OA
ATOM     48  H   UNK d   0      -7.112   1.124 -21.510  0.00  0.00     0.167 HD
ENDBRANCH  45  47
ENDBRANCH  44  45
ENDBRANCH  43  44
ENDBRANCH  27  43
BRANCH  24  49
ATOM     49  C   UNK d   0      -2.089   0.981 -21.263  0.00  0.00     0.052 C 
BRANCH  49  50
ATOM     50  C   UNK d   0      -2.636   1.415 -22.599  0.00  0.00     0.115 C 
BRANCH  50  51
ATOM     51  C   UNK d   0      -4.079   1.340 -22.783  0.00  0.00     0.139 C 
ATOM     52  O   UNK d   0      -4.699   2.088 -23.576  0.00  0.00    -0.650 OA
BRANCH  51  53
ATOM     53  O   UNK d   0      -4.815   0.414 -22.061  0.00  0.00    -0.776 OA
ATOM     54  H   UNK d   0      -5.551   0.752 -21.465  0.00  0.00     0.167 HD
ENDBRANCH  51  53
ENDBRANCH  50  51
ENDBRANCH  49  50
ENDBRANCH  24  49
BRANCH  21  55
ATOM     55  C   UNK d   0       0.822   1.844 -20.691  0.00  0.00     0.151 C 
BRANCH  55  56
ATOM     56  C   UNK d   0       1.365   2.437 -21.923  0.00  0.00     0.143 C 
ATOM     57  O   UNK d   0       0.962   2.121 -23.059  0.00  0.00    -0.650 OA
BRANCH  56  58
ATOM     58  O   UNK d   0       2.374   3.391 -21.793  0.00  0.00    -0.776 OA
ATOM     59  H   UNK d   0       3.299   3.100 -22.156  0.00  0.00     0.167 HD
ENDBRANCH  56  58
ENDBRANCH  55  56
ENDBRANCH  21  55
BRANCH  18  60
ATOM     60  C   UNK d   0       2.349   4.899 -16.551  0.00  0.00     0.151 C 
BRANCH  60  61
ATOM     61  C   UNK d   0       1.799   3.701 -15.899  0.00  0.00     0.143 C 
ATOM     62  O   UNK d   0       1.783   2.554 -16.347  0.00  0.00    -0.650 OA
BRANCH  61  63
ATOM     63  O   UNK d   0       1.233   3.917 -14.620  0.00  0.00    -0.776 OA
ATOM     64  H   UNK d   0       0.816   3.163 -14.104  0.00  0.00     0.167 HD
ENDBRANCH  61  63
ENDBRANCH  60  61
ENDBRANCH  18  60
BRANCH  14  65
ATOM     65  C   UNK d   0       1.490   7.374 -15.018  0.00  0.00     0.052 C 
BRANCH  65  66
ATOM     66  C   UNK d   0       2.513   8.390 -15.384  0.00  0.00     0.115 C 
BRANCH  66  67
ATOM     67  C   UNK d   0       3.863   8.240 -14.921  0.00  0.00     0.139 C 
ATOM     68  O   UNK d   0       4.719   9.152 -15.219  0.00  0.00    -0.650 OA
BRANCH  67  69
ATOM     69  O   UNK d   0       4.394   7.197 -14.161  0.00  0.00    -0.776 OA
ATOM     70  H   UNK d   0       3.996   6.264 -14.342  0.00  0.00     0.167 HD
ENDBRANCH  67  69
ENDBRANCH  66  67
ENDBRANCH  65  66
ENDBRANCH  14  65
ENDBRANCH   6   7
ENDBRANCH   5   6
ENDBRANCH   2   5
TORSDOF 28
ENDMDL
