MODEL 1
REMARK VINA RESULT:      -7.1      0.000      0.000
REMARK  28 active torsions:
REMARK  status: ('A' for Active; 'I' for Inactive)
REMARK    1  A    between atoms: C_2  and  O_3 
REMARK    2  A    between atoms: C_2  and  C_4 
REMARK    3  A    between atoms: C_4  and  C_5 
REMARK    4  A    between atoms: C_5  and  C_6 
REMARK    5  A    between atoms: C_7  and  C_8 
REMARK    6  A    between atoms: C_8  and  C_9 
REMARK    7  A    between atoms: C_9  and  O_11 
REMARK    8  A    between atoms: C_28  and  C_29 
REMARK    9  A    between atoms: C_29  and  C_30 
REMARK   10  A    between atoms: C_30  and  O_32 
REMARK   11  A    between atoms: C_33  and  C_34 
REMARK   12  A    between atoms: C_34  and  C_35 
REMARK   13  A    between atoms: C_35  and  C_36 
REMARK   14  A    between atoms: C_36  and  O_38 
REMARK   15  A    between atoms: C_39  and  C_40 
REMARK   16  A    between atoms: C_40  and  C_41 
REMARK   17  A    between atoms: C_41  and  C_42 
REMARK   18  A    between atoms: C_42  and  O_44 
REMARK   19  A    between atoms: C_45  and  C_46 
REMARK   20  A    between atoms: C_46  and  C_47 
REMARK   21  A    between atoms: C_47  and  O_49 
REMARK   22  A    between atoms: C_50  and  C_51 
REMARK   23  A    between atoms: C_51  and  C_52 
REMARK   24  A    between atoms: C_52  and  O_54 
REMARK   25  A    between atoms: C_55  and  C_56 
REMARK   26  A    between atoms: C_56  and  C_57 
REMARK   27  A    between atoms: C_57  and  C_58 
REMARK   28  A    between atoms: C_58  and  O_60 
ROOT
ATOM      1  O   UNK d   0     -48.802  18.982  -0.012  0.00  0.00    -0.650 OA
ATOM      2  C   UNK d   0     -47.608  18.636   0.127  0.00  0.00     0.139 C 
ENDROOT
BRANCH   2   3
ATOM      3  O   UNK d   0     -47.135  17.552  -0.573  0.00  0.00    -0.776 OA
ATOM      4  H   UNK d   0     -47.430  16.602  -0.337  0.00  0.00     0.167 HD
ENDBRANCH   2   3
BRANCH   2   5
ATOM      5  C   UNK d   0     -46.711  19.394   1.045  0.00  0.00     0.115 C 
BRANCH   5   6
ATOM      6  C   UNK d   0     -46.132  20.586   0.334  0.00  0.00     0.052 C 
BRANCH   6   7
ATOM      7  C   UNK d   0     -44.869  20.254  -0.424  0.00  0.00    -0.020 A 
ATOM      8  C   UNK d   0     -44.654  20.374  -1.709  0.00  0.00    -0.011 A 
ATOM      9  C   UNK d   0     -43.298  19.925  -1.977  0.00  0.00     0.067 A 
ATOM     10  C   UNK d   0     -42.471  19.821  -3.106  0.00  0.00     0.062 C 
ATOM     11  N   UNK d   0     -42.762  19.543  -0.799  0.00  0.00    -0.248 NA
ATOM     12  C   UNK d   0     -41.086  19.623  -3.127  0.00  0.00     0.041 A 
ATOM     13  N   UNK d   0     -40.297  18.804  -2.405  0.00  0.00    -0.355 N 
ATOM     14  C   UNK d   0     -40.298  20.413  -3.983  0.00  0.00    -0.022 A 
ATOM     15  C   UNK d   0     -39.028  19.060  -2.776  0.00  0.00     0.042 A 
ATOM     16  H   UNK d   0     -40.632  18.047  -1.662  0.00  0.00     0.166 HD
ATOM     17  C   UNK d   0     -37.816  18.489  -2.338  0.00  0.00     0.062 C 
ATOM     18  C   UNK d   0     -38.989  20.063  -3.763  0.00  0.00    -0.013 A 
ATOM     19  C   UNK d   0     -37.406  18.212  -1.060  0.00  0.00     0.067 A 
ATOM     20  N   UNK d   0     -38.326  18.299  -0.096  0.00  0.00    -0.248 NA
ATOM     21  C   UNK d   0     -36.154  17.836  -0.422  0.00  0.00    -0.011 A 
ATOM     22  C   UNK d   0     -37.768  18.010   1.125  0.00  0.00     0.066 A 
ATOM     23  C   UNK d   0     -38.626  18.027   2.214  0.00  0.00     0.062 C 
ATOM     24  C   UNK d   0     -36.372  17.724   0.856  0.00  0.00    -0.020 A 
ATOM     25  C   UNK d   0     -40.017  18.216   2.212  0.00  0.00     0.041 A 
ATOM     26  N   UNK d   0     -40.799  19.040   1.505  0.00  0.00    -0.355 N 
ATOM     27  C   UNK d   0     -40.807  17.419   3.069  0.00  0.00    -0.022 A 
ATOM     28  C   UNK d   0     -42.065  18.793   1.880  0.00  0.00     0.042 A 
ATOM     29  H   UNK d   0     -40.461  19.808   0.767  0.00  0.00     0.166 HD
ATOM     30  C   UNK d   0     -43.279  19.359   1.460  0.00  0.00     0.062 C 
ATOM     31  C   UNK d   0     -42.104  17.778   2.864  0.00  0.00    -0.013 A 
ATOM     32  C   UNK d   0     -43.656  19.717   0.175  0.00  0.00     0.066 A 
BRANCH   8  33
ATOM     33  C   UNK d   0     -45.604  20.869  -2.722  0.00  0.00     0.151 C 
BRANCH  33  34
ATOM     34  C   UNK d   0     -46.211  19.783  -3.514  0.00  0.00     0.143 C 
ATOM     35  O   UNK d   0     -46.605  18.742  -2.969  0.00  0.00    -0.650 OA
BRANCH  34  36
ATOM     36  O   UNK d   0     -46.338  19.930  -4.876  0.00  0.00    -0.776 OA
ATOM     37  H   UNK d   0     -45.906  19.260  -5.527  0.00  0.00     0.167 HD
ENDBRANCH  34  36
ENDBRANCH  33  34
ENDBRANCH   8  33
BRANCH  31  38
ATOM     38  C   UNK d   0     -43.312  17.184   3.551  0.00  0.00     0.151 C 
BRANCH  38  39
ATOM     39  C   UNK d   0     -43.665  17.882   4.769  0.00  0.00     0.143 C 
ATOM     40  O   UNK d   0     -43.044  18.884   5.166  0.00  0.00    -0.650 OA
BRANCH  39  41
ATOM     41  O   UNK d   0     -44.740  17.428   5.533  0.00  0.00    -0.776 OA
ATOM     42  H   UNK d   0     -44.609  16.542   6.032  0.00  0.00     0.167 HD
ENDBRANCH  39  41
ENDBRANCH  38  39
ENDBRANCH  31  38
BRANCH  27  43
ATOM     43  C   UNK d   0     -40.383  16.357   4.052  0.00  0.00     0.052 C 
BRANCH  43  44
ATOM     44  C   UNK d   0     -40.642  14.967   3.569  0.00  0.00     0.115 C 
BRANCH  44  45
ATOM     45  C   UNK d   0     -39.962  14.053   4.523  0.00  0.00     0.139 C 
ATOM     46  O   UNK d   0     -38.728  13.868   4.388  0.00  0.00    -0.650 OA
BRANCH  45  47
ATOM     47  O   UNK d   0     -40.628  13.410   5.544  0.00  0.00    -0.776 OA
ATOM     48  H   UNK d   0     -40.889  12.412   5.502  0.00  0.00     0.167 HD
ENDBRANCH  45  47
ENDBRANCH  44  45
ENDBRANCH  43  44
ENDBRANCH  27  43
BRANCH  24  49
ATOM     49  C   UNK d   0     -35.386  17.322   1.873  0.00  0.00     0.052 C 
BRANCH  49  50
ATOM     50  C   UNK d   0     -36.038  16.466   2.928  0.00  0.00     0.115 C 
BRANCH  50  51
ATOM     51  C   UNK d   0     -35.160  15.794   3.876  0.00  0.00     0.139 C 
ATOM     52  O   UNK d   0     -35.086  14.546   3.963  0.00  0.00    -0.650 OA
BRANCH  51  53
ATOM     53  O   UNK d   0     -34.367  16.547   4.729  0.00  0.00    -0.776 OA
ATOM     54  H   UNK d   0     -33.443  16.796   4.422  0.00  0.00     0.167 HD
ENDBRANCH  51  53
ENDBRANCH  50  51
ENDBRANCH  49  50
ENDBRANCH  24  49
BRANCH  21  55
ATOM     55  C   UNK d   0     -34.873  17.625  -1.158  0.00  0.00     0.151 C 
BRANCH  55  56
ATOM     56  C   UNK d   0     -34.165  18.890  -1.408  0.00  0.00     0.143 C 
ATOM     57  O   UNK d   0     -33.512  19.483  -0.527  0.00  0.00    -0.650 OA
BRANCH  56  58
ATOM     58  O   UNK d   0     -34.238  19.433  -2.690  0.00  0.00    -0.776 OA
ATOM     59  H   UNK d   0     -33.450  20.053  -2.946  0.00  0.00     0.167 HD
ENDBRANCH  56  58
ENDBRANCH  55  56
ENDBRANCH  21  55
BRANCH  18  60
ATOM     60  C   UNK d   0     -37.801  20.672  -4.467  0.00  0.00     0.151 C 
BRANCH  60  61
ATOM     61  C   UNK d   0     -37.361  21.792  -3.622  0.00  0.00     0.143 C 
ATOM     62  O   UNK d   0     -37.848  22.921  -3.572  0.00  0.00    -0.650 OA
BRANCH  61  63
ATOM     63  O   UNK d   0     -36.255  21.514  -2.783  0.00  0.00    -0.776 OA
ATOM     64  H   UNK d   0     -36.297  20.783  -2.095  0.00  0.00     0.167 HD
ENDBRANCH  61  63
ENDBRANCH  60  61
ENDBRANCH  18  60
BRANCH  14  65
ATOM     65  C   UNK d   0     -40.691  21.392  -5.052  0.00  0.00     0.052 C 
BRANCH  65  66
ATOM     66  C   UNK d   0     -41.114  20.734  -6.317  0.00  0.00     0.115 C 
BRANCH  66  67
ATOM     67  C   UNK d   0     -40.148  20.493  -7.352  0.00  0.00     0.139 C 
ATOM     68  O   UNK d   0     -39.310  21.426  -7.638  0.00  0.00    -0.650 OA
BRANCH  67  69
ATOM     69  O   UNK d   0     -39.990  19.341  -8.121  0.00  0.00    -0.776 OA
ATOM     70  H   UNK d   0     -39.069  18.884  -8.059  0.00  0.00     0.167 HD
ENDBRANCH  67  69
ENDBRANCH  66  67
ENDBRANCH  65  66
ENDBRANCH  14  65
ENDBRANCH   6   7
ENDBRANCH   5   6
ENDBRANCH   2   5
TORSDOF 28
ENDMDL
MODEL 2
REMARK VINA RESULT:      -7.1      1.650      8.291
REMARK  28 active torsions:
REMARK  status: ('A' for Active; 'I' for Inactive)
REMARK    1  A    between atoms: C_2  and  O_3 
REMARK    2  A    between atoms: C_2  and  C_4 
REMARK    3  A    between atoms: C_4  and  C_5 
REMARK    4  A    between atoms: C_5  and  C_6 
REMARK    5  A    between atoms: C_7  and  C_8 
REMARK    6  A    between atoms: C_8  and  C_9 
REMARK    7  A    between atoms: C_9  and  O_11 
REMARK    8  A    between atoms: C_28  and  C_29 
REMARK    9  A    between atoms: C_29  and  C_30 
REMARK   10  A    between atoms: C_30  and  O_32 
REMARK   11  A    between atoms: C_33  and  C_34 
REMARK   12  A    between atoms: C_34  and  C_35 
REMARK   13  A    between atoms: C_35  and  C_36 
REMARK   14  A    between atoms: C_36  and  O_38 
REMARK   15  A    between atoms: C_39  and  C_40 
REMARK   16  A    between atoms: C_40  and  C_41 
REMARK   17  A    between atoms: C_41  and  C_42 
REMARK   18  A    between atoms: C_42  and  O_44 
REMARK   19  A    between atoms: C_45  and  C_46 
REMARK   20  A    between atoms: C_46  and  C_47 
REMARK   21  A    between atoms: C_47  and  O_49 
REMARK   22  A    between atoms: C_50  and  C_51 
REMARK   23  A    between atoms: C_51  and  C_52 
REMARK   24  A    between atoms: C_52  and  O_54 
REMARK   25  A    between atoms: C_55  and  C_56 
REMARK   26  A    between atoms: C_56  and  C_57 
REMARK   27  A    between atoms: C_57  and  C_58 
REMARK   28  A    between atoms: C_58  and  O_60 
ROOT
ATOM      1  O   UNK d   0     -43.825  19.495   4.886  0.00  0.00    -0.650 OA
ATOM      2  C   UNK d   0     -44.199  18.316   4.700  0.00  0.00     0.139 C 
ENDROOT
BRANCH   2   3
ATOM      3  O   UNK d   0     -44.465  17.515   5.784  0.00  0.00    -0.776 OA
ATOM      4  H   UNK d   0     -43.730  16.952   6.217  0.00  0.00     0.167 HD
ENDBRANCH   2   3
BRANCH   2   5
ATOM      5  C   UNK d   0     -44.353  17.789   3.314  0.00  0.00     0.115 C 
BRANCH   5   6
ATOM      6  C   UNK d   0     -43.359  16.687   3.066  0.00  0.00     0.052 C 
BRANCH   6   7
ATOM      7  C   UNK d   0     -42.062  17.194   2.481  0.00  0.00    -0.020 A 
ATOM      8  C   UNK d   0     -40.871  17.147   3.020  0.00  0.00    -0.011 A 
ATOM      9  C   UNK d   0     -39.938  17.764   2.092  0.00  0.00     0.067 A 
ATOM     10  C   UNK d   0     -38.556  18.006   2.057  0.00  0.00     0.062 C 
ATOM     11  N   UNK d   0     -40.648  18.165   1.017  0.00  0.00    -0.248 NA
ATOM     12  C   UNK d   0     -37.787  18.369   0.945  0.00  0.00     0.041 A 
ATOM     13  N   UNK d   0     -38.023  19.249  -0.046  0.00  0.00    -0.355 N 
ATOM     14  C   UNK d   0     -36.566  17.709   0.718  0.00  0.00    -0.022 A 
ATOM     15  C   UNK d   0     -36.986  19.160  -0.900  0.00  0.00     0.042 A 
ATOM     16  H   UNK d   0     -38.895  19.934  -0.130  0.00  0.00     0.166 HD
ATOM     17  C   UNK d   0     -36.727  19.855  -2.098  0.00  0.00     0.062 C 
ATOM     18  C   UNK d   0     -36.052  18.204  -0.455  0.00  0.00    -0.013 A 
ATOM     19  C   UNK d   0     -37.580  20.134  -3.135  0.00  0.00     0.067 A 
ATOM     20  N   UNK d   0     -38.879  19.903  -2.928  0.00  0.00    -0.248 NA
ATOM     21  C   UNK d   0     -37.446  20.633  -4.493  0.00  0.00    -0.011 A 
ATOM     22  C   UNK d   0     -39.604  20.213  -4.053  0.00  0.00     0.066 A 
ATOM     23  C   UNK d   0     -40.979  20.055  -3.963  0.00  0.00     0.062 C 
ATOM     24  C   UNK d   0     -38.633  20.673  -5.027  0.00  0.00    -0.020 A 
ATOM     25  C   UNK d   0     -41.733  19.702  -2.834  0.00  0.00     0.041 A 
ATOM     26  N   UNK d   0     -41.506  18.816  -1.856  0.00  0.00    -0.355 N 
ATOM     27  C   UNK d   0     -42.957  20.367  -2.604  0.00  0.00    -0.022 A 
ATOM     28  C   UNK d   0     -42.543  18.897  -1.008  0.00  0.00     0.042 A 
ATOM     29  H   UNK d   0     -40.634  18.120  -1.779  0.00  0.00     0.166 HD
ATOM     30  C   UNK d   0     -42.818  18.205   0.182  0.00  0.00     0.062 C 
ATOM     31  C   UNK d   0     -43.476  19.864  -1.450  0.00  0.00    -0.013 A 
ATOM     32  C   UNK d   0     -41.933  17.851   1.189  0.00  0.00     0.066 A 
BRANCH   8  33
ATOM     33  C   UNK d   0     -40.516  16.579   4.334  0.00  0.00     0.151 C 
BRANCH  33  34
ATOM     34  C   UNK d   0     -40.805  17.498   5.450  0.00  0.00     0.143 C 
ATOM     35  O   UNK d   0     -40.251  18.604   5.523  0.00  0.00    -0.650 OA
BRANCH  34  36
ATOM     36  O   UNK d   0     -41.701  17.118   6.422  0.00  0.00    -0.776 OA
ATOM     37  H   UNK d   0     -41.391  16.906   7.380  0.00  0.00     0.167 HD
ENDBRANCH  34  36
ENDBRANCH  33  34
ENDBRANCH   8  33
BRANCH  31  38
ATOM     38  C   UNK d   0     -44.772  20.285  -0.799  0.00  0.00     0.151 C 
BRANCH  38  39
ATOM     39  C   UNK d   0     -45.923  19.596  -1.342  0.00  0.00     0.143 C 
ATOM     40  O   UNK d   0     -46.988  20.183  -1.602  0.00  0.00    -0.650 OA
BRANCH  39  41
ATOM     41  O   UNK d   0     -45.850  18.226  -1.589  0.00  0.00    -0.776 OA
ATOM     42  H   UNK d   0     -45.612  17.941  -2.545  0.00  0.00     0.167 HD
ENDBRANCH  39  41
ENDBRANCH  38  39
ENDBRANCH  31  38
BRANCH  27  43
ATOM     43  C   UNK d   0     -43.635  21.436  -3.424  0.00  0.00     0.052 C 
BRANCH  43  44
ATOM     44  C   UNK d   0     -44.460  20.889  -4.542  0.00  0.00     0.115 C 
BRANCH  44  45
ATOM     45  C   UNK d   0     -43.899  21.450  -5.798  0.00  0.00     0.139 C 
ATOM     46  O   UNK d   0     -42.854  22.142  -5.722  0.00  0.00    -0.650 OA
BRANCH  45  47
ATOM     47  O   UNK d   0     -44.471  21.236  -7.034  0.00  0.00    -0.776 OA
ATOM     48  H   UNK d   0     -44.464  20.316  -7.503  0.00  0.00     0.167 HD
ENDBRANCH  45  47
ENDBRANCH  44  45
ENDBRANCH  43  44
ENDBRANCH  27  43
BRANCH  24  49
ATOM     49  C   UNK d   0     -38.962  21.153  -6.380  0.00  0.00     0.052 C 
BRANCH  49  50
ATOM     50  C   UNK d   0     -39.605  20.053  -7.185  0.00  0.00     0.115 C 
BRANCH  50  51
ATOM     51  C   UNK d   0     -40.364  20.448  -8.363  0.00  0.00     0.139 C 
ATOM     52  O   UNK d   0     -39.842  20.562  -9.497  0.00  0.00    -0.650 OA
BRANCH  51  53
ATOM     53  O   UNK d   0     -41.719  20.718  -8.248  0.00  0.00    -0.776 OA
ATOM     54  H   UNK d   0     -42.011  21.678  -8.197  0.00  0.00     0.167 HD
ENDBRANCH  51  53
ENDBRANCH  50  51
ENDBRANCH  49  50
ENDBRANCH  24  49
BRANCH  21  55
ATOM     55  C   UNK d   0     -36.146  21.022  -5.115  0.00  0.00     0.151 C 
BRANCH  55  56
ATOM     56  C   UNK d   0     -35.689  22.343  -4.657  0.00  0.00     0.143 C 
ATOM     57  O   UNK d   0     -34.772  22.489  -3.825  0.00  0.00    -0.650 OA
BRANCH  56  58
ATOM     58  O   UNK d   0     -36.319  23.468  -5.187  0.00  0.00    -0.776 OA
ATOM     59  H   UNK d   0     -37.351  23.473  -5.098  0.00  0.00     0.167 HD
ENDBRANCH  56  58
ENDBRANCH  55  56
ENDBRANCH  21  55
BRANCH  18  60
ATOM     60  C   UNK d   0     -34.751  17.767  -1.082  0.00  0.00     0.151 C 
BRANCH  60  61
ATOM     61  C   UNK d   0     -33.829  18.902  -0.931  0.00  0.00     0.143 C 
ATOM     62  O   UNK d   0     -33.535  19.739  -1.785  0.00  0.00    -0.650 OA
BRANCH  61  63
ATOM     63  O   UNK d   0     -33.227  19.024   0.345  0.00  0.00    -0.776 OA
ATOM     64  H   UNK d   0     -32.229  19.091   0.443  0.00  0.00     0.167 HD
ENDBRANCH  61  63
ENDBRANCH  60  61
ENDBRANCH  18  60
BRANCH  14  65
ATOM     65  C   UNK d   0     -35.808  16.729   1.567  0.00  0.00     0.052 C 
BRANCH  65  66
ATOM     66  C   UNK d   0     -34.984  17.384   2.618  0.00  0.00     0.115 C 
BRANCH  66  67
ATOM     67  C   UNK d   0     -34.061  16.601   3.390  0.00  0.00     0.139 C 
ATOM     68  O   UNK d   0     -34.323  16.390   4.631  0.00  0.00    -0.650 OA
BRANCH  67  69
ATOM     69  O   UNK d   0     -32.870  16.016   2.960  0.00  0.00    -0.776 OA
ATOM     70  H   UNK d   0     -32.400  16.484   2.171  0.00  0.00     0.167 HD
ENDBRANCH  67  69
ENDBRANCH  66  67
ENDBRANCH  65  66
ENDBRANCH  14  65
ENDBRANCH   6   7
ENDBRANCH   5   6
ENDBRANCH   2   5
TORSDOF 28
ENDMDL
MODEL 3
REMARK VINA RESULT:      -7.0      0.980      1.446
REMARK  28 active torsions:
REMARK  status: ('A' for Active; 'I' for Inactive)
REMARK    1  A    between atoms: C_2  and  O_3 
REMARK    2  A    between atoms: C_2  and  C_4 
REMARK    3  A    between atoms: C_4  and  C_5 
REMARK    4  A    between atoms: C_5  and  C_6 
REMARK    5  A    between atoms: C_7  and  C_8 
REMARK    6  A    between atoms: C_8  and  C_9 
REMARK    7  A    between atoms: C_9  and  O_11 
REMARK    8  A    between atoms: C_28  and  C_29 
REMARK    9  A    between atoms: C_29  and  C_30 
REMARK   10  A    between atoms: C_30  and  O_32 
REMARK   11  A    between atoms: C_33  and  C_34 
REMARK   12  A    between atoms: C_34  and  C_35 
REMARK   13  A    between atoms: C_35  and  C_36 
REMARK   14  A    between atoms: C_36  and  O_38 
REMARK   15  A    between atoms: C_39  and  C_40 
REMARK   16  A    between atoms: C_40  and  C_41 
REMARK   17  A    between atoms: C_41  and  C_42 
REMARK   18  A    between atoms: C_42  and  O_44 
REMARK   19  A    between atoms: C_45  and  C_46 
REMARK   20  A    between atoms: C_46  and  C_47 
REMARK   21  A    between atoms: C_47  and  O_49 
REMARK   22  A    between atoms: C_50  and  C_51 
REMARK   23  A    between atoms: C_51  and  C_52 
REMARK   24  A    between atoms: C_52  and  O_54 
REMARK   25  A    between atoms: C_55  and  C_56 
REMARK   26  A    between atoms: C_56  and  C_57 
REMARK   27  A    between atoms: C_57  and  C_58 
REMARK   28  A    between atoms: C_58  and  O_60 
ROOT
ATOM      1  O   UNK d   0     -45.348  22.665   3.422  0.00  0.00    -0.650 OA
ATOM      2  C   UNK d   0     -45.729  21.766   2.640  0.00  0.00     0.139 C 
ENDROOT
BRANCH   2   3
ATOM      3  O   UNK d   0     -46.078  20.537   3.145  0.00  0.00    -0.776 OA
ATOM      4  H   UNK d   0     -45.390  19.944   3.614  0.00  0.00     0.167 HD
ENDBRANCH   2   3
BRANCH   2   5
ATOM      5  C   UNK d   0     -45.799  22.030   1.174  0.00  0.00     0.115 C 
BRANCH   5   6
ATOM      6  C   UNK d   0     -45.948  20.736   0.422  0.00  0.00     0.052 C 
BRANCH   6   7
ATOM      7  C   UNK d   0     -44.708  20.372  -0.359  0.00  0.00    -0.020 A 
ATOM      8  C   UNK d   0     -44.516  20.483  -1.649  0.00  0.00    -0.011 A 
ATOM      9  C   UNK d   0     -43.176  20.001  -1.942  0.00  0.00     0.067 A 
ATOM     10  C   UNK d   0     -42.373  19.875  -3.086  0.00  0.00     0.062 C 
ATOM     11  N   UNK d   0     -42.626  19.611  -0.773  0.00  0.00    -0.248 NA
ATOM     12  C   UNK d   0     -40.994  19.644  -3.133  0.00  0.00     0.041 A 
ATOM     13  N   UNK d   0     -40.211  18.810  -2.423  0.00  0.00    -0.355 N 
ATOM     14  C   UNK d   0     -40.205  20.413  -4.007  0.00  0.00    -0.022 A 
ATOM     15  C   UNK d   0     -38.944  19.035  -2.820  0.00  0.00     0.042 A 
ATOM     16  H   UNK d   0     -40.548  18.062  -1.672  0.00  0.00     0.166 HD
ATOM     17  C   UNK d   0     -37.737  18.438  -2.404  0.00  0.00     0.062 C 
ATOM     18  C   UNK d   0     -38.900  20.034  -3.811  0.00  0.00    -0.013 A 
ATOM     19  C   UNK d   0     -37.308  18.154  -1.132  0.00  0.00     0.067 A 
ATOM     20  N   UNK d   0     -38.208  18.266  -0.152  0.00  0.00    -0.248 NA
ATOM     21  C   UNK d   0     -36.054  17.751  -0.518  0.00  0.00    -0.011 A 
ATOM     22  C   UNK d   0     -37.633  17.967   1.059  0.00  0.00     0.066 A 
ATOM     23  C   UNK d   0     -38.469  18.008   2.165  0.00  0.00     0.062 C 
ATOM     24  C   UNK d   0     -36.249  17.648   0.765  0.00  0.00    -0.020 A 
ATOM     25  C   UNK d   0     -39.854  18.229   2.189  0.00  0.00     0.041 A 
ATOM     26  N   UNK d   0     -40.631  19.069   1.495  0.00  0.00    -0.355 N 
ATOM     27  C   UNK d   0     -40.646  17.453   3.063  0.00  0.00    -0.022 A 
ATOM     28  C   UNK d   0     -41.894  18.853   1.894  0.00  0.00     0.042 A 
ATOM     29  H   UNK d   0     -40.289  19.827   0.748  0.00  0.00     0.166 HD
ATOM     30  C   UNK d   0     -43.103  19.446   1.496  0.00  0.00     0.062 C 
ATOM     31  C   UNK d   0     -41.939  17.841   2.883  0.00  0.00    -0.013 A 
ATOM     32  C   UNK d   0     -43.497  19.808   0.218  0.00  0.00     0.066 A 
BRANCH   8  33
ATOM     33  C   UNK d   0     -45.473  20.997  -2.645  0.00  0.00     0.151 C 
BRANCH  33  34
ATOM     34  C   UNK d   0     -46.352  19.944  -3.188  0.00  0.00     0.143 C 
ATOM     35  O   UNK d   0     -47.330  20.232  -3.892  0.00  0.00    -0.650 OA
BRANCH  34  36
ATOM     36  O   UNK d   0     -46.080  18.626  -2.905  0.00  0.00    -0.776 OA
ATOM     37  H   UNK d   0     -45.173  18.340  -2.511  0.00  0.00     0.167 HD
ENDBRANCH  34  36
ENDBRANCH  33  34
ENDBRANCH   8  33
BRANCH  31  38
ATOM     38  C   UNK d   0     -43.146  17.278   3.595  0.00  0.00     0.151 C 
BRANCH  38  39
ATOM     39  C   UNK d   0     -43.479  18.008   4.800  0.00  0.00     0.143 C 
ATOM     40  O   UNK d   0     -44.293  18.949   4.804  0.00  0.00    -0.650 OA
BRANCH  39  41
ATOM     41  O   UNK d   0     -42.874  17.655   6.006  0.00  0.00    -0.776 OA
ATOM     42  H   UNK d   0     -42.870  16.659   6.246  0.00  0.00     0.167 HD
ENDBRANCH  39  41
ENDBRANCH  38  39
ENDBRANCH  31  38
BRANCH  27  43
ATOM     43  C   UNK d   0     -40.228  16.385   4.042  0.00  0.00     0.052 C 
BRANCH  43  44
ATOM     44  C   UNK d   0     -40.613  15.006   3.612  0.00  0.00     0.115 C 
BRANCH  44  45
ATOM     45  C   UNK d   0     -39.953  14.067   4.556  0.00  0.00     0.139 C 
ATOM     46  O   UNK d   0     -38.733  13.820   4.388  0.00  0.00    -0.650 OA
BRANCH  45  47
ATOM     47  O   UNK d   0     -40.619  13.467   5.602  0.00  0.00    -0.776 OA
ATOM     48  H   UNK d   0     -41.515  13.822   5.973  0.00  0.00     0.167 HD
ENDBRANCH  45  47
ENDBRANCH  44  45
ENDBRANCH  43  44
ENDBRANCH  27  43
BRANCH  24  49
ATOM     49  C   UNK d   0     -35.253  17.226   1.764  0.00  0.00     0.052 C 
BRANCH  49  50
ATOM     50  C   UNK d   0     -35.935  16.608   2.957  0.00  0.00     0.115 C 
BRANCH  50  51
ATOM     51  C   UNK d   0     -35.091  15.915   3.920  0.00  0.00     0.139 C 
ATOM     52  O   UNK d   0     -34.331  16.521   4.713  0.00  0.00    -0.650 OA
BRANCH  51  53
ATOM     53  O   UNK d   0     -35.111  14.530   3.979  0.00  0.00    -0.776 OA
ATOM     54  H   UNK d   0     -34.467  14.071   4.600  0.00  0.00     0.167 HD
ENDBRANCH  51  53
ENDBRANCH  50  51
ENDBRANCH  49  50
ENDBRANCH  24  49
BRANCH  21  55
ATOM     55  C   UNK d   0     -34.792  17.508  -1.278  0.00  0.00     0.151 C 
BRANCH  55  56
ATOM     56  C   UNK d   0     -34.271  18.739  -1.891  0.00  0.00     0.143 C 
ATOM     57  O   UNK d   0     -34.068  18.849  -3.116  0.00  0.00    -0.650 OA
BRANCH  56  58
ATOM     58  O   UNK d   0     -34.000  19.818  -1.052  0.00  0.00    -0.776 OA
ATOM     59  H   UNK d   0     -33.003  19.931  -0.794  0.00  0.00     0.167 HD
ENDBRANCH  56  58
ENDBRANCH  55  56
ENDBRANCH  21  55
BRANCH  18  60
ATOM     60  C   UNK d   0     -37.713  20.613  -4.540  0.00  0.00     0.151 C 
BRANCH  60  61
ATOM     61  C   UNK d   0     -37.172  21.662  -3.663  0.00  0.00     0.143 C 
ATOM     62  O   UNK d   0     -37.667  22.766  -3.433  0.00  0.00    -0.650 OA
BRANCH  61  63
ATOM     63  O   UNK d   0     -35.949  21.342  -3.024  0.00  0.00    -0.776 OA
ATOM     64  H   UNK d   0     -35.793  21.572  -2.059  0.00  0.00     0.167 HD
ENDBRANCH  61  63
ENDBRANCH  60  61
ENDBRANCH  18  60
BRANCH  14  65
ATOM     65  C   UNK d   0     -40.595  21.399  -5.072  0.00  0.00     0.052 C 
BRANCH  65  66
ATOM     66  C   UNK d   0     -41.064  20.746  -6.324  0.00  0.00     0.115 C 
BRANCH  66  67
ATOM     67  C   UNK d   0     -40.132  20.495  -7.387  0.00  0.00     0.139 C 
ATOM     68  O   UNK d   0     -39.348  21.446  -7.754  0.00  0.00    -0.650 OA
BRANCH  67  69
ATOM     69  O   UNK d   0     -39.954  19.312  -8.104  0.00  0.00    -0.776 OA
ATOM     70  H   UNK d   0     -39.959  19.406  -9.130  0.00  0.00     0.167 HD
ENDBRANCH  67  69
ENDBRANCH  66  67
ENDBRANCH  65  66
ENDBRANCH  14  65
ENDBRANCH   6   7
ENDBRANCH   5   6
ENDBRANCH   2   5
TORSDOF 28
ENDMDL
MODEL 4
REMARK VINA RESULT:      -7.0      2.003      3.488
REMARK  28 active torsions:
REMARK  status: ('A' for Active; 'I' for Inactive)
REMARK    1  A    between atoms: C_2  and  O_3 
REMARK    2  A    between atoms: C_2  and  C_4 
REMARK    3  A    between atoms: C_4  and  C_5 
REMARK    4  A    between atoms: C_5  and  C_6 
REMARK    5  A    between atoms: C_7  and  C_8 
REMARK    6  A    between atoms: C_8  and  C_9 
REMARK    7  A    between atoms: C_9  and  O_11 
REMARK    8  A    between atoms: C_28  and  C_29 
REMARK    9  A    between atoms: C_29  and  C_30 
REMARK   10  A    between atoms: C_30  and  O_32 
REMARK   11  A    between atoms: C_33  and  C_34 
REMARK   12  A    between atoms: C_34  and  C_35 
REMARK   13  A    between atoms: C_35  and  C_36 
REMARK   14  A    between atoms: C_36  and  O_38 
REMARK   15  A    between atoms: C_39  and  C_40 
REMARK   16  A    between atoms: C_40  and  C_41 
REMARK   17  A    between atoms: C_41  and  C_42 
REMARK   18  A    between atoms: C_42  and  O_44 
REMARK   19  A    between atoms: C_45  and  C_46 
REMARK   20  A    between atoms: C_46  and  C_47 
REMARK   21  A    between atoms: C_47  and  O_49 
REMARK   22  A    between atoms: C_50  and  C_51 
REMARK   23  A    between atoms: C_51  and  C_52 
REMARK   24  A    between atoms: C_52  and  O_54 
REMARK   25  A    between atoms: C_55  and  C_56 
REMARK   26  A    between atoms: C_56  and  C_57 
REMARK   27  A    between atoms: C_57  and  C_58 
REMARK   28  A    between atoms: C_58  and  O_60 
ROOT
ATOM      1  O   UNK d   0     -44.639  19.485   4.345  0.00  0.00    -0.650 OA
ATOM      2  C   UNK d   0     -44.427  18.255   4.268  0.00  0.00     0.139 C 
ENDROOT
BRANCH   2   3
ATOM      3  O   UNK d   0     -44.458  17.492   5.411  0.00  0.00    -0.776 OA
ATOM      4  H   UNK d   0     -43.765  17.623   6.151  0.00  0.00     0.167 HD
ENDBRANCH   2   3
BRANCH   2   5
ATOM      5  C   UNK d   0     -44.142  17.626   2.947  0.00  0.00     0.115 C 
BRANCH   5   6
ATOM      6  C   UNK d   0     -44.531  18.562   1.834  0.00  0.00     0.052 C 
BRANCH   6   7
ATOM      7  C   UNK d   0     -43.508  18.600   0.723  0.00  0.00    -0.020 A 
ATOM      8  C   UNK d   0     -43.731  18.620  -0.566  0.00  0.00    -0.011 A 
ATOM      9  C   UNK d   0     -42.443  18.645  -1.240  0.00  0.00     0.067 A 
ATOM     10  C   UNK d   0     -41.997  18.694  -2.570  0.00  0.00     0.062 C 
ATOM     11  N   UNK d   0     -41.491  18.632  -0.284  0.00  0.00    -0.248 NA
ATOM     12  C   UNK d   0     -40.707  18.994  -3.020  0.00  0.00     0.041 A 
ATOM     13  N   UNK d   0     -39.499  18.605  -2.570  0.00  0.00    -0.355 N 
ATOM     14  C   UNK d   0     -40.552  19.893  -4.091  0.00  0.00    -0.022 A 
ATOM     15  C   UNK d   0     -38.581  19.241  -3.323  0.00  0.00     0.042 A 
ATOM     16  H   UNK d   0     -39.298  17.881  -1.750  0.00  0.00     0.166 HD
ATOM     17  C   UNK d   0     -37.173  19.194  -3.280  0.00  0.00     0.062 C 
ATOM     18  C   UNK d   0     -39.203  20.057  -4.287  0.00  0.00    -0.013 A 
ATOM     19  C   UNK d   0     -36.342  19.246  -2.191  0.00  0.00     0.067 A 
ATOM     20  N   UNK d   0     -36.912  19.129  -0.989  0.00  0.00    -0.248 NA
ATOM     21  C   UNK d   0     -34.915  19.420  -1.972  0.00  0.00    -0.011 A 
ATOM     22  C   UNK d   0     -35.962  19.214  -0.000  0.00  0.00     0.066 A 
ATOM     23  C   UNK d   0     -36.414  19.070   1.303  0.00  0.00     0.062 C 
ATOM     24  C   UNK d   0     -34.700  19.405  -0.689  0.00  0.00    -0.020 A 
ATOM     25  C   UNK d   0     -37.712  18.756   1.734  0.00  0.00     0.041 A 
ATOM     26  N   UNK d   0     -38.913  19.153   1.297  0.00  0.00    -0.355 N 
ATOM     27  C   UNK d   0     -37.867  17.850   2.806  0.00  0.00    -0.022 A 
ATOM     28  C   UNK d   0     -39.830  18.528   2.052  0.00  0.00     0.042 A 
ATOM     29  H   UNK d   0     -39.112  19.889   0.479  0.00  0.00     0.166 HD
ATOM     30  C   UNK d   0     -41.233  18.572   2.026  0.00  0.00     0.062 C 
ATOM     31  C   UNK d   0     -39.204  17.700   3.013  0.00  0.00    -0.013 A 
ATOM     32  C   UNK d   0     -42.066  18.605   0.919  0.00  0.00     0.066 A 
BRANCH   8  33
ATOM     33  C   UNK d   0     -45.044  18.614  -1.237  0.00  0.00     0.151 C 
BRANCH  33  34
ATOM     34  C   UNK d   0     -45.324  19.870  -1.956  0.00  0.00     0.143 C 
ATOM     35  O   UNK d   0     -45.105  20.969  -1.426  0.00  0.00    -0.650 OA
BRANCH  34  36
ATOM     36  O   UNK d   0     -45.835  19.819  -3.232  0.00  0.00    -0.776 OA
ATOM     37  H   UNK d   0     -46.739  19.368  -3.427  0.00  0.00     0.167 HD
ENDBRANCH  34  36
ENDBRANCH  33  34
ENDBRANCH   8  33
BRANCH  31  38
ATOM     38  C   UNK d   0     -39.850  16.814   4.052  0.00  0.00     0.151 C 
BRANCH  38  39
ATOM     39  C   UNK d   0     -40.398  17.560   5.165  0.00  0.00     0.143 C 
ATOM     40  O   UNK d   0     -39.862  18.594   5.601  0.00  0.00    -0.650 OA
BRANCH  39  41
ATOM     41  O   UNK d   0     -41.569  17.117   5.779  0.00  0.00    -0.776 OA
ATOM     42  H   UNK d   0     -42.259  17.832   6.029  0.00  0.00     0.167 HD
ENDBRANCH  39  41
ENDBRANCH  38  39
ENDBRANCH  31  38
BRANCH  27  43
ATOM     43  C   UNK d   0     -36.815  17.141   3.621  0.00  0.00     0.052 C 
BRANCH  43  44
ATOM     44  C   UNK d   0     -35.833  16.383   2.788  0.00  0.00     0.115 C 
BRANCH  44  45
ATOM     45  C   UNK d   0     -34.777  15.896   3.714  0.00  0.00     0.139 C 
ATOM     46  O   UNK d   0     -34.689  14.659   3.912  0.00  0.00    -0.650 OA
BRANCH  45  47
ATOM     47  O   UNK d   0     -33.897  16.741   4.355  0.00  0.00    -0.776 OA
ATOM     48  H   UNK d   0     -32.924  16.473   4.575  0.00  0.00     0.167 HD
ENDBRANCH  45  47
ENDBRANCH  44  45
ENDBRANCH  43  44
ENDBRANCH  27  43
BRANCH  24  49
ATOM     49  C   UNK d   0     -33.389  19.511  -0.026  0.00  0.00     0.052 C 
BRANCH  49  50
ATOM     50  C   UNK d   0     -33.348  20.724   0.867  0.00  0.00     0.115 C 
BRANCH  50  51
ATOM     51  C   UNK d   0     -33.218  20.492   2.299  0.00  0.00     0.139 C 
ATOM     52  O   UNK d   0     -33.112  21.425   3.129  0.00  0.00    -0.650 OA
BRANCH  51  53
ATOM     53  O   UNK d   0     -33.206  19.193   2.785  0.00  0.00    -0.776 OA
ATOM     54  H   UNK d   0     -32.871  19.039   3.720  0.00  0.00     0.167 HD
ENDBRANCH  51  53
ENDBRANCH  50  51
ENDBRANCH  49  50
ENDBRANCH  24  49
BRANCH  21  55
ATOM     55  C   UNK d   0     -33.916  19.579  -3.070  0.00  0.00     0.151 C 
BRANCH  55  56
ATOM     56  C   UNK d   0     -34.182  20.771  -3.890  0.00  0.00     0.143 C 
ATOM     57  O   UNK d   0     -34.644  20.705  -5.046  0.00  0.00    -0.650 OA
BRANCH  56  58
ATOM     58  O   UNK d   0     -33.900  22.017  -3.334  0.00  0.00    -0.776 OA
ATOM     59  H   UNK d   0     -34.554  22.774  -3.605  0.00  0.00     0.167 HD
ENDBRANCH  56  58
ENDBRANCH  55  56
ENDBRANCH  21  55
BRANCH  18  60
ATOM     60  C   UNK d   0     -38.585  20.948  -5.336  0.00  0.00     0.151 C 
BRANCH  60  61
ATOM     61  C   UNK d   0     -38.315  22.230  -4.669  0.00  0.00     0.143 C 
ATOM     62  O   UNK d   0     -39.141  23.071  -4.314  0.00  0.00    -0.650 OA
BRANCH  61  63
ATOM     63  O   UNK d   0     -36.948  22.503  -4.418  0.00  0.00    -0.776 OA
ATOM     64  H   UNK d   0     -36.331  22.784  -5.159  0.00  0.00     0.167 HD
ENDBRANCH  61  63
ENDBRANCH  60  61
ENDBRANCH  18  60
BRANCH  14  65
ATOM     65  C   UNK d   0     -41.571  20.525  -4.996  0.00  0.00     0.052 C 
BRANCH  65  66
ATOM     66  C   UNK d   0     -42.543  21.383  -4.268  0.00  0.00     0.115 C 
BRANCH  66  67
ATOM     67  C   UNK d   0     -43.851  21.601  -4.819  0.00  0.00     0.139 C 
ATOM     68  O   UNK d   0     -44.553  22.578  -4.365  0.00  0.00    -0.650 OA
BRANCH  67  69
ATOM     69  O   UNK d   0     -44.489  20.869  -5.820  0.00  0.00    -0.776 OA
ATOM     70  H   UNK d   0     -44.918  19.981  -5.521  0.00  0.00     0.167 HD
ENDBRANCH  67  69
ENDBRANCH  66  67
ENDBRANCH  65  66
ENDBRANCH  14  65
ENDBRANCH   6   7
ENDBRANCH   5   6
ENDBRANCH   2   5
TORSDOF 28
ENDMDL
MODEL 5
REMARK VINA RESULT:      -6.9      1.862      5.144
REMARK  28 active torsions:
REMARK  status: ('A' for Active; 'I' for Inactive)
REMARK    1  A    between atoms: C_2  and  O_3 
REMARK    2  A    between atoms: C_2  and  C_4 
REMARK    3  A    between atoms: C_4  and  C_5 
REMARK    4  A    between atoms: C_5  and  C_6 
REMARK    5  A    between atoms: C_7  and  C_8 
REMARK    6  A    between atoms: C_8  and  C_9 
REMARK    7  A    between atoms: C_9  and  O_11 
REMARK    8  A    between atoms: C_28  and  C_29 
REMARK    9  A    between atoms: C_29  and  C_30 
REMARK   10  A    between atoms: C_30  and  O_32 
REMARK   11  A    between atoms: C_33  and  C_34 
REMARK   12  A    between atoms: C_34  and  C_35 
REMARK   13  A    between atoms: C_35  and  C_36 
REMARK   14  A    between atoms: C_36  and  O_38 
REMARK   15  A    between atoms: C_39  and  C_40 
REMARK   16  A    between atoms: C_40  and  C_41 
REMARK   17  A    between atoms: C_41  and  C_42 
REMARK   18  A    between atoms: C_42  and  O_44 
REMARK   19  A    between atoms: C_45  and  C_46 
REMARK   20  A    between atoms: C_46  and  C_47 
REMARK   21  A    between atoms: C_47  and  O_49 
REMARK   22  A    between atoms: C_50  and  C_51 
REMARK   23  A    between atoms: C_51  and  C_52 
REMARK   24  A    between atoms: C_52  and  O_54 
REMARK   25  A    between atoms: C_55  and  C_56 
REMARK   26  A    between atoms: C_56  and  C_57 
REMARK   27  A    between atoms: C_57  and  C_58 
REMARK   28  A    between atoms: C_58  and  O_60 
ROOT
ATOM      1  O   UNK d   0     -44.933  22.285  -4.324  0.00  0.00    -0.650 OA
ATOM      2  C   UNK d   0     -44.800  21.486  -5.277  0.00  0.00     0.139 C 
ENDROOT
BRANCH   2   3
ATOM      3  O   UNK d   0     -45.738  20.499  -5.464  0.00  0.00    -0.776 OA
ATOM      4  H   UNK d   0     -46.670  20.571  -5.051  0.00  0.00     0.167 HD
ENDBRANCH   2   3
BRANCH   2   5
ATOM      5  C   UNK d   0     -43.635  21.607  -6.199  0.00  0.00     0.115 C 
BRANCH   5   6
ATOM      6  C   UNK d   0     -42.562  22.452  -5.567  0.00  0.00     0.052 C 
BRANCH   6   7
ATOM      7  C   UNK d   0     -41.389  21.634  -5.082  0.00  0.00    -0.020 A 
ATOM      8  C   UNK d   0     -40.319  21.295  -5.756  0.00  0.00    -0.011 A 
ATOM      9  C   UNK d   0     -39.474  20.502  -4.878  0.00  0.00     0.067 A 
ATOM     10  C   UNK d   0     -38.223  19.873  -4.975  0.00  0.00     0.062 C 
ATOM     11  N   UNK d   0     -40.109  20.404  -3.691  0.00  0.00    -0.248 NA
ATOM     12  C   UNK d   0     -37.437  19.385  -3.925  0.00  0.00     0.041 A 
ATOM     13  N   UNK d   0     -37.766  18.685  -2.823  0.00  0.00    -0.355 N 
ATOM     14  C   UNK d   0     -36.061  19.676  -3.913  0.00  0.00    -0.022 A 
ATOM     15  C   UNK d   0     -36.635  18.532  -2.108  0.00  0.00     0.042 A 
ATOM     16  H   UNK d   0     -38.773  18.290  -2.565  0.00  0.00     0.166 HD
ATOM     17  C   UNK d   0     -36.414  17.880  -0.878  0.00  0.00     0.062 C 
ATOM     18  C   UNK d   0     -35.545  19.140  -2.759  0.00  0.00    -0.013 A 
ATOM     19  C   UNK d   0     -37.156  17.937   0.274  0.00  0.00     0.067 A 
ATOM     20  N   UNK d   0     -38.355  18.520   0.193  0.00  0.00    -0.248 NA
ATOM     21  C   UNK d   0     -36.976  17.521   1.655  0.00  0.00    -0.011 A 
ATOM     22  C   UNK d   0     -38.971  18.516   1.420  0.00  0.00     0.066 A 
ATOM     23  C   UNK d   0     -40.246  19.059   1.472  0.00  0.00     0.062 C 
ATOM     24  C   UNK d   0     -38.040  17.866   2.321  0.00  0.00    -0.020 A 
ATOM     25  C   UNK d   0     -41.024  19.532   0.403  0.00  0.00     0.041 A 
ATOM     26  N   UNK d   0     -40.700  20.241  -0.685  0.00  0.00    -0.355 N 
ATOM     27  C   UNK d   0     -42.404  19.236   0.390  0.00  0.00    -0.022 A 
ATOM     28  C   UNK d   0     -41.827  20.403  -1.395  0.00  0.00     0.042 A 
ATOM     29  H   UNK d   0     -39.689  20.646  -0.937  0.00  0.00     0.166 HD
ATOM     30  C   UNK d   0     -42.063  21.056  -2.615  0.00  0.00     0.062 C 
ATOM     31  C   UNK d   0     -42.920  19.782  -0.745  0.00  0.00    -0.013 A 
ATOM     32  C   UNK d   0     -41.266  21.064  -3.749  0.00  0.00     0.066 A 
BRANCH   8  33
ATOM     33  C   UNK d   0     -40.009  21.638  -7.156  0.00  0.00     0.151 C 
BRANCH  33  34
ATOM     34  C   UNK d   0     -40.501  20.631  -8.113  0.00  0.00     0.143 C 
ATOM     35  O   UNK d   0     -41.399  20.907  -8.922  0.00  0.00    -0.650 OA
BRANCH  34  36
ATOM     36  O   UNK d   0     -39.956  19.368  -8.104  0.00  0.00    -0.776 OA
ATOM     37  H   UNK d   0     -38.958  19.218  -7.905  0.00  0.00     0.167 HD
ENDBRANCH  34  36
ENDBRANCH  33  34
ENDBRANCH   8  33
BRANCH  31  38
ATOM     38  C   UNK d   0     -44.361  19.709  -1.194  0.00  0.00     0.151 C 
BRANCH  38  39
ATOM     39  C   UNK d   0     -44.740  18.390  -1.654  0.00  0.00     0.143 C 
ATOM     40  O   UNK d   0     -45.828  17.868  -1.355  0.00  0.00    -0.650 OA
BRANCH  39  41
ATOM     41  O   UNK d   0     -43.863  17.668  -2.464  0.00  0.00    -0.776 OA
ATOM     42  H   UNK d   0     -43.369  16.885  -2.025  0.00  0.00     0.167 HD
ENDBRANCH  39  41
ENDBRANCH  38  39
ENDBRANCH  31  38
BRANCH  27  43
ATOM     43  C   UNK d   0     -43.230  18.472   1.394  0.00  0.00     0.052 C 
BRANCH  43  44
ATOM     44  C   UNK d   0     -43.781  19.333   2.484  0.00  0.00     0.115 C 
BRANCH  44  45
ATOM     45  C   UNK d   0     -43.694  18.539   3.737  0.00  0.00     0.139 C 
ATOM     46  O   UNK d   0     -44.082  17.345   3.710  0.00  0.00    -0.650 OA
BRANCH  45  47
ATOM     47  O   UNK d   0     -43.202  19.056   4.917  0.00  0.00    -0.776 OA
ATOM     48  H   UNK d   0     -42.624  19.911   4.956  0.00  0.00     0.167 HD
ENDBRANCH  45  47
ENDBRANCH  44  45
ENDBRANCH  43  44
ENDBRANCH  27  43
BRANCH  24  49
ATOM     49  C   UNK d   0     -38.295  17.602   3.748  0.00  0.00     0.052 C 
BRANCH  49  50
ATOM     50  C   UNK d   0     -39.094  16.334   3.911  0.00  0.00     0.115 C 
BRANCH  50  51
ATOM     51  C   UNK d   0     -40.529  16.475   4.119  0.00  0.00     0.139 C 
ATOM     52  O   UNK d   0     -41.015  17.009   5.144  0.00  0.00    -0.650 OA
BRANCH  51  53
ATOM     53  O   UNK d   0     -41.410  16.005   3.158  0.00  0.00    -0.776 OA
ATOM     54  H   UNK d   0     -41.238  15.099   2.758  0.00  0.00     0.167 HD
ENDBRANCH  51  53
ENDBRANCH  50  51
ENDBRANCH  49  50
ENDBRANCH  24  49
BRANCH  21  55
ATOM     55  C   UNK d   0     -35.761  16.818   2.163  0.00  0.00     0.151 C 
BRANCH  55  56
ATOM     56  C   UNK d   0     -34.532  17.584   1.905  0.00  0.00     0.143 C 
ATOM     57  O   UNK d   0     -34.315  18.702   2.411  0.00  0.00    -0.650 OA
BRANCH  56  58
ATOM     58  O   UNK d   0     -33.581  17.019   1.057  0.00  0.00    -0.776 OA
ATOM     59  H   UNK d   0     -32.902  16.389   1.522  0.00  0.00     0.167 HD
ENDBRANCH  56  58
ENDBRANCH  55  56
ENDBRANCH  21  55
BRANCH  18  60
ATOM     60  C   UNK d   0     -34.099  19.226  -2.337  0.00  0.00     0.151 C 
BRANCH  60  61
ATOM     61  C   UNK d   0     -34.057  20.199  -1.235  0.00  0.00     0.143 C 
ATOM     62  O   UNK d   0     -34.675  21.261  -1.159  0.00  0.00    -0.650 OA
BRANCH  61  63
ATOM     63  O   UNK d   0     -33.208  19.851  -0.157  0.00  0.00    -0.776 OA
ATOM     64  H   UNK d   0     -32.265  19.545  -0.318  0.00  0.00     0.167 HD
ENDBRANCH  61  63
ENDBRANCH  60  61
ENDBRANCH  18  60
BRANCH  14  65
ATOM     65  C   UNK d   0     -35.187  20.330  -4.945  0.00  0.00     0.052 C 
BRANCH  65  66
ATOM     66  C   UNK d   0     -34.968  21.779  -4.689  0.00  0.00     0.115 C 
BRANCH  66  67
ATOM     67  C   UNK d   0     -36.048  22.586  -4.194  0.00  0.00     0.139 C 
ATOM     68  O   UNK d   0     -36.860  23.111  -5.042  0.00  0.00    -0.650 OA
BRANCH  67  69
ATOM     69  O   UNK d   0     -36.348  22.890  -2.867  0.00  0.00    -0.776 OA
ATOM     70  H   UNK d   0     -37.195  23.456  -2.717  0.00  0.00     0.167 HD
ENDBRANCH  67  69
ENDBRANCH  66  67
ENDBRANCH  65  66
ENDBRANCH  14  65
ENDBRANCH   6   7
ENDBRANCH   5   6
ENDBRANCH   2   5
TORSDOF 28
ENDMDL
MODEL 6
REMARK VINA RESULT:      -6.8      1.468      7.840
REMARK  28 active torsions:
REMARK  status: ('A' for Active; 'I' for Inactive)
REMARK    1  A    between atoms: C_2  and  O_3 
REMARK    2  A    between atoms: C_2  and  C_4 
REMARK    3  A    between atoms: C_4  and  C_5 
REMARK    4  A    between atoms: C_5  and  C_6 
REMARK    5  A    between atoms: C_7  and  C_8 
REMARK    6  A    between atoms: C_8  and  C_9 
REMARK    7  A    between atoms: C_9  and  O_11 
REMARK    8  A    between atoms: C_28  and  C_29 
REMARK    9  A    between atoms: C_29  and  C_30 
REMARK   10  A    between atoms: C_30  and  O_32 
REMARK   11  A    between atoms: C_33  and  C_34 
REMARK   12  A    between atoms: C_34  and  C_35 
REMARK   13  A    between atoms: C_35  and  C_36 
REMARK   14  A    between atoms: C_36  and  O_38 
REMARK   15  A    between atoms: C_39  and  C_40 
REMARK   16  A    between atoms: C_40  and  C_41 
REMARK   17  A    between atoms: C_41  and  C_42 
REMARK   18  A    between atoms: C_42  and  O_44 
REMARK   19  A    between atoms: C_45  and  C_46 
REMARK   20  A    between atoms: C_46  and  C_47 
REMARK   21  A    between atoms: C_47  and  O_49 
REMARK   22  A    between atoms: C_50  and  C_51 
REMARK   23  A    between atoms: C_51  and  C_52 
REMARK   24  A    between atoms: C_52  and  O_54 
REMARK   25  A    between atoms: C_55  and  C_56 
REMARK   26  A    between atoms: C_56  and  C_57 
REMARK   27  A    between atoms: C_57  and  C_58 
REMARK   28  A    between atoms: C_58  and  O_60 
ROOT
ATOM      1  O   UNK d   0     -44.179  21.827  -4.989  0.00  0.00    -0.650 OA
ATOM      2  C   UNK d   0     -45.234  21.299  -4.573  0.00  0.00     0.139 C 
ENDROOT
BRANCH   2   3
ATOM      3  O   UNK d   0     -46.002  20.557  -5.438  0.00  0.00    -0.776 OA
ATOM      4  H   UNK d   0     -46.287  20.932  -6.345  0.00  0.00     0.167 HD
ENDBRANCH   2   3
BRANCH   2   5
ATOM      5  C   UNK d   0     -45.650  21.476  -3.153  0.00  0.00     0.115 C 
BRANCH   5   6
ATOM      6  C   UNK d   0     -45.719  20.141  -2.463  0.00  0.00     0.052 C 
BRANCH   6   7
ATOM      7  C   UNK d   0     -44.680  19.994  -1.377  0.00  0.00    -0.020 A 
ATOM      8  C   UNK d   0     -44.855  20.106  -0.085  0.00  0.00    -0.011 A 
ATOM      9  C   UNK d   0     -43.569  19.891   0.558  0.00  0.00     0.067 A 
ATOM     10  C   UNK d   0     -43.090  19.855   1.877  0.00  0.00     0.062 C 
ATOM     11  N   UNK d   0     -42.667  19.660  -0.419  0.00  0.00    -0.248 NA
ATOM     12  C   UNK d   0     -41.861  19.354   2.318  0.00  0.00     0.041 A 
ATOM     13  N   UNK d   0     -40.619  19.480   1.812  0.00  0.00    -0.355 N 
ATOM     14  C   UNK d   0     -41.833  18.520   3.450  0.00  0.00    -0.022 A 
ATOM     15  C   UNK d   0     -39.806  18.741   2.589  0.00  0.00     0.042 A 
ATOM     16  H   UNK d   0     -40.321  20.094   0.934  0.00  0.00     0.166 HD
ATOM     17  C   UNK d   0     -38.416  18.523   2.510  0.00  0.00     0.062 C 
ATOM     18  C   UNK d   0     -40.530  18.124   3.627  0.00  0.00    -0.013 A 
ATOM     19  C   UNK d   0     -37.649  18.241   1.408  0.00  0.00     0.067 A 
ATOM     20  N   UNK d   0     -38.232  18.377   0.214  0.00  0.00    -0.248 NA
ATOM     21  C   UNK d   0     -36.287  17.792   1.170  0.00  0.00    -0.011 A 
ATOM     22  C   UNK d   0     -37.351  18.048  -0.787  0.00  0.00     0.066 A 
ATOM     23  C   UNK d   0     -37.817  18.181  -2.086  0.00  0.00     0.062 C 
ATOM     24  C   UNK d   0     -36.121  17.676  -0.116  0.00  0.00    -0.020 A 
ATOM     25  C   UNK d   0     -39.052  18.698  -2.509  0.00  0.00     0.041 A 
ATOM     26  N   UNK d   0     -40.288  18.561  -2.015  0.00  0.00    -0.355 N 
ATOM     27  C   UNK d   0     -39.078  19.539  -3.643  0.00  0.00    -0.022 A 
ATOM     28  C   UNK d   0     -41.103  19.290  -2.794  0.00  0.00     0.042 A 
ATOM     29  H   UNK d   0     -40.588  17.934  -1.139  0.00  0.00     0.166 HD
ATOM     30  C   UNK d   0     -42.488  19.508  -2.731  0.00  0.00     0.062 C 
ATOM     31  C   UNK d   0     -40.372  19.918  -3.830  0.00  0.00    -0.013 A 
ATOM     32  C   UNK d   0     -43.272  19.708  -1.606  0.00  0.00     0.066 A 
BRANCH   8  33
ATOM     33  C   UNK d   0     -46.119  20.402   0.614  0.00  0.00     0.151 C 
BRANCH  33  34
ATOM     34  C   UNK d   0     -46.742  19.202   1.201  0.00  0.00     0.143 C 
ATOM     35  O   UNK d   0     -47.448  18.451   0.513  0.00  0.00    -0.650 OA
BRANCH  34  36
ATOM     36  O   UNK d   0     -46.534  18.914   2.530  0.00  0.00    -0.776 OA
ATOM     37  H   UNK d   0     -47.157  19.286   3.260  0.00  0.00     0.167 HD
ENDBRANCH  34  36
ENDBRANCH  33  34
ENDBRANCH   8  33
BRANCH  31  38
ATOM     38  C   UNK d   0     -40.884  20.833  -4.918  0.00  0.00     0.151 C 
BRANCH  38  39
ATOM     39  C   UNK d   0     -40.823  22.232  -4.551  0.00  0.00     0.143 C 
ATOM     40  O   UNK d   0     -39.990  23.013  -5.042  0.00  0.00    -0.650 OA
BRANCH  39  41
ATOM     41  O   UNK d   0     -41.725  22.735  -3.613  0.00  0.00    -0.776 OA
ATOM     42  H   UNK d   0     -41.351  23.387  -2.917  0.00  0.00     0.167 HD
ENDBRANCH  39  41
ENDBRANCH  38  39
ENDBRANCH  31  38
BRANCH  27  43
ATOM     43  C   UNK d   0     -37.945  19.981  -4.535  0.00  0.00     0.052 C 
BRANCH  43  44
ATOM     44  C   UNK d   0     -37.032  20.969  -3.884  0.00  0.00     0.115 C 
BRANCH  44  45
ATOM     45  C   UNK d   0     -36.576  21.894  -4.954  0.00  0.00     0.139 C 
ATOM     46  O   UNK d   0     -35.360  22.207  -4.987  0.00  0.00    -0.650 OA
BRANCH  45  47
ATOM     47  O   UNK d   0     -37.426  22.413  -5.906  0.00  0.00    -0.776 OA
ATOM     48  H   UNK d   0     -38.358  22.013  -6.102  0.00  0.00     0.167 HD
ENDBRANCH  45  47
ENDBRANCH  44  45
ENDBRANCH  43  44
ENDBRANCH  27  43
BRANCH  24  49
ATOM     49  C   UNK d   0     -34.876  17.283  -0.799  0.00  0.00     0.052 C 
BRANCH  49  50
ATOM     50  C   UNK d   0     -34.206  18.490  -1.404  0.00  0.00     0.115 C 
BRANCH  50  51
ATOM     51  C   UNK d   0     -34.208  18.593  -2.857  0.00  0.00     0.139 C 
ATOM     52  O   UNK d   0     -33.669  19.546  -3.468  0.00  0.00    -0.650 OA
BRANCH  51  53
ATOM     53  O   UNK d   0     -34.826  17.610  -3.614  0.00  0.00    -0.776 OA
ATOM     54  H   UNK d   0     -35.104  16.761  -3.154  0.00  0.00     0.167 HD
ENDBRANCH  51  53
ENDBRANCH  50  51
ENDBRANCH  49  50
ENDBRANCH  24  49
BRANCH  21  55
ATOM     55  C   UNK d   0     -35.293  17.529   2.253  0.00  0.00     0.151 C 
BRANCH  55  56
ATOM     56  C   UNK d   0     -35.279  16.114   2.656  0.00  0.00     0.143 C 
ATOM     57  O   UNK d   0     -34.532  15.269   2.125  0.00  0.00    -0.650 OA
BRANCH  56  58
ATOM     58  O   UNK d   0     -36.143  15.721   3.677  0.00  0.00    -0.776 OA
ATOM     59  H   UNK d   0     -36.620  14.816   3.519  0.00  0.00     0.167 HD
ENDBRANCH  56  58
ENDBRANCH  55  56
ENDBRANCH  21  55
BRANCH  18  60
ATOM     60  C   UNK d   0     -40.046  17.210   4.726  0.00  0.00     0.151 C 
BRANCH  60  61
ATOM     61  C   UNK d   0     -39.988  15.864   4.136  0.00  0.00     0.143 C 
ATOM     62  O   UNK d   0     -38.977  15.219   3.857  0.00  0.00    -0.650 OA
BRANCH  61  63
ATOM     63  O   UNK d   0     -41.244  15.268   3.871  0.00  0.00    -0.776 OA
ATOM     64  H   UNK d   0     -42.012  15.370   4.511  0.00  0.00     0.167 HD
ENDBRANCH  61  63
ENDBRANCH  60  61
ENDBRANCH  18  60
BRANCH  14  65
ATOM     65  C   UNK d   0     -42.915  18.153   4.425  0.00  0.00     0.052 C 
BRANCH  65  66
ATOM     66  C   UNK d   0     -43.174  19.215   5.434  0.00  0.00     0.115 C 
BRANCH  66  67
ATOM     67  C   UNK d   0     -42.648  19.078   6.763  0.00  0.00     0.139 C 
ATOM     68  O   UNK d   0     -42.132  17.951   7.106  0.00  0.00    -0.650 OA
BRANCH  67  69
ATOM     69  O   UNK d   0     -42.621  20.038   7.773  0.00  0.00    -0.776 OA
ATOM     70  H   UNK d   0     -42.393  19.691   8.716  0.00  0.00     0.167 HD
ENDBRANCH  67  69
ENDBRANCH  66  67
ENDBRANCH  65  66
ENDBRANCH  14  65
ENDBRANCH   6   7
ENDBRANCH   5   6
ENDBRANCH   2   5
TORSDOF 28
ENDMDL
MODEL 7
REMARK VINA RESULT:      -6.8      1.817      8.156
REMARK  28 active torsions:
REMARK  status: ('A' for Active; 'I' for Inactive)
REMARK    1  A    between atoms: C_2  and  O_3 
REMARK    2  A    between atoms: C_2  and  C_4 
REMARK    3  A    between atoms: C_4  and  C_5 
REMARK    4  A    between atoms: C_5  and  C_6 
REMARK    5  A    between atoms: C_7  and  C_8 
REMARK    6  A    between atoms: C_8  and  C_9 
REMARK    7  A    between atoms: C_9  and  O_11 
REMARK    8  A    between atoms: C_28  and  C_29 
REMARK    9  A    between atoms: C_29  and  C_30 
REMARK   10  A    between atoms: C_30  and  O_32 
REMARK   11  A    between atoms: C_33  and  C_34 
REMARK   12  A    between atoms: C_34  and  C_35 
REMARK   13  A    between atoms: C_35  and  C_36 
REMARK   14  A    between atoms: C_36  and  O_38 
REMARK   15  A    between atoms: C_39  and  C_40 
REMARK   16  A    between atoms: C_40  and  C_41 
REMARK   17  A    between atoms: C_41  and  C_42 
REMARK   18  A    between atoms: C_42  and  O_44 
REMARK   19  A    between atoms: C_45  and  C_46 
REMARK   20  A    between atoms: C_46  and  C_47 
REMARK   21  A    between atoms: C_47  and  O_49 
REMARK   22  A    between atoms: C_50  and  C_51 
REMARK   23  A    between atoms: C_51  and  C_52 
REMARK   24  A    between atoms: C_52  and  O_54 
REMARK   25  A    between atoms: C_55  and  C_56 
REMARK   26  A    between atoms: C_56  and  C_57 
REMARK   27  A    between atoms: C_57  and  C_58 
REMARK   28  A    between atoms: C_58  and  O_60 
ROOT
ATOM      1  O   UNK d   0     -37.981  13.429   4.662  0.00  0.00    -0.650 OA
ATOM      2  C   UNK d   0     -39.221  13.399   4.493  0.00  0.00     0.139 C 
ENDROOT
BRANCH   2   3
ATOM      3  O   UNK d   0     -39.956  12.396   5.078  0.00  0.00    -0.776 OA
ATOM      4  H   UNK d   0     -39.721  11.413   4.929  0.00  0.00     0.167 HD
ENDBRANCH   2   3
BRANCH   2   5
ATOM      5  C   UNK d   0     -39.888  14.442   3.664  0.00  0.00     0.115 C 
BRANCH   5   6
ATOM      6  C   UNK d   0     -39.727  15.794   4.304  0.00  0.00     0.052 C 
BRANCH   6   7
ATOM      7  C   UNK d   0     -39.237  16.841   3.333  0.00  0.00    -0.020 A 
ATOM      8  C   UNK d   0     -38.076  17.446   3.330  0.00  0.00    -0.011 A 
ATOM      9  C   UNK d   0     -38.063  18.377   2.214  0.00  0.00     0.067 A 
ATOM     10  C   UNK d   0     -37.143  19.283   1.663  0.00  0.00     0.062 C 
ATOM     11  N   UNK d   0     -39.258  18.278   1.595  0.00  0.00    -0.248 NA
ATOM     12  C   UNK d   0     -37.209  19.898   0.408  0.00  0.00     0.041 A 
ATOM     13  N   UNK d   0     -38.241  20.458  -0.252  0.00  0.00    -0.355 N 
ATOM     14  C   UNK d   0     -36.053  19.934  -0.394  0.00  0.00    -0.022 A 
ATOM     15  C   UNK d   0     -37.771  20.841  -1.455  0.00  0.00     0.042 A 
ATOM     16  H   UNK d   0     -39.275  20.598   0.132  0.00  0.00     0.166 HD
ATOM     17  C   UNK d   0     -38.424  21.477  -2.530  0.00  0.00     0.062 C 
ATOM     18  C   UNK d   0     -36.404  20.529  -1.580  0.00  0.00    -0.013 A 
ATOM     19  C   UNK d   0     -39.653  21.203  -3.076  0.00  0.00     0.067 A 
ATOM     20  N   UNK d   0     -40.441  20.362  -2.401  0.00  0.00    -0.248 NA
ATOM     21  C   UNK d   0     -40.373  21.595  -4.276  0.00  0.00    -0.011 A 
ATOM     22  C   UNK d   0     -41.623  20.175  -3.074  0.00  0.00     0.066 A 
ATOM     23  C   UNK d   0     -42.555  19.349  -2.463  0.00  0.00     0.062 C 
ATOM     24  C   UNK d   0     -41.524  20.986  -4.271  0.00  0.00    -0.020 A 
ATOM     25  C   UNK d   0     -42.475  18.751  -1.196  0.00  0.00     0.041 A 
ATOM     26  N   UNK d   0     -41.453  18.180  -0.546  0.00  0.00    -0.355 N 
ATOM     27  C   UNK d   0     -43.634  18.719  -0.390  0.00  0.00    -0.022 A 
ATOM     28  C   UNK d   0     -41.921  17.790   0.650  0.00  0.00     0.042 A 
ATOM     29  H   UNK d   0     -40.417  18.031  -0.937  0.00  0.00     0.166 HD
ATOM     30  C   UNK d   0     -41.285  17.148   1.725  0.00  0.00     0.062 C 
ATOM     31  C   UNK d   0     -43.292  18.113   0.780  0.00  0.00    -0.013 A 
ATOM     32  C   UNK d   0     -40.010  17.370   2.219  0.00  0.00     0.066 A 
BRANCH   8  33
ATOM     33  C   UNK d   0     -36.969  17.240   4.282  0.00  0.00     0.151 C 
BRANCH  33  34
ATOM     34  C   UNK d   0     -35.839  16.501   3.690  0.00  0.00     0.143 C 
ATOM     35  O   UNK d   0     -34.787  16.333   4.323  0.00  0.00    -0.650 OA
BRANCH  34  36
ATOM     36  O   UNK d   0     -35.956  15.993   2.417  0.00  0.00    -0.776 OA
ATOM     37  H   UNK d   0     -35.376  16.347   1.645  0.00  0.00     0.167 HD
ENDBRANCH  34  36
ENDBRANCH  33  34
ENDBRANCH   8  33
BRANCH  31  38
ATOM     38  C   UNK d   0     -44.207  17.868   1.957  0.00  0.00     0.151 C 
BRANCH  38  39
ATOM     39  C   UNK d   0     -44.312  19.013   2.836  0.00  0.00     0.143 C 
ATOM     40  O   UNK d   0     -43.422  19.310   3.651  0.00  0.00    -0.650 OA
BRANCH  39  41
ATOM     41  O   UNK d   0     -45.447  19.822   2.775  0.00  0.00    -0.776 OA
ATOM     42  H   UNK d   0     -46.252  19.450   2.263  0.00  0.00     0.167 HD
ENDBRANCH  39  41
ENDBRANCH  38  39
ENDBRANCH  31  38
BRANCH  27  43
ATOM     43  C   UNK d   0     -45.022  19.230  -0.687  0.00  0.00     0.052 C 
BRANCH  43  44
ATOM     44  C   UNK d   0     -45.868  18.246  -1.427  0.00  0.00     0.115 C 
BRANCH  44  45
ATOM     45  C   UNK d   0     -47.048  17.969  -0.567  0.00  0.00     0.139 C 
ATOM     46  O   UNK d   0     -47.882  17.118  -0.964  0.00  0.00    -0.650 OA
BRANCH  45  47
ATOM     47  O   UNK d   0     -47.258  18.599   0.640  0.00  0.00    -0.776 OA
ATOM     48  H   UNK d   0     -47.125  18.128   1.549  0.00  0.00     0.167 HD
ENDBRANCH  45  47
ENDBRANCH  44  45
ENDBRANCH  43  44
ENDBRANCH  27  43
BRANCH  24  49
ATOM     49  C   UNK d   0     -42.585  21.127  -5.282  0.00  0.00     0.052 C 
BRANCH  49  50
ATOM     50  C   UNK d   0     -43.737  21.925  -4.726  0.00  0.00     0.115 C 
BRANCH  50  51
ATOM     51  C   UNK d   0     -45.035  21.268  -4.670  0.00  0.00     0.139 C 
ATOM     52  O   UNK d   0     -45.662  21.097  -3.598  0.00  0.00    -0.650 OA
BRANCH  51  53
ATOM     53  O   UNK d   0     -45.619  20.802  -5.839  0.00  0.00    -0.776 OA
ATOM     54  H   UNK d   0     -45.054  20.263  -6.470  0.00  0.00     0.167 HD
ENDBRANCH  51  53
ENDBRANCH  50  51
ENDBRANCH  49  50
ENDBRANCH  24  49
BRANCH  21  55
ATOM     55  C   UNK d   0     -39.838  22.540  -5.300  0.00  0.00     0.151 C 
BRANCH  55  56
ATOM     56  C   UNK d   0     -38.866  21.893  -6.193  0.00  0.00     0.143 C 
ATOM     57  O   UNK d   0     -39.206  21.194  -7.168  0.00  0.00    -0.650 OA
BRANCH  56  58
ATOM     58  O   UNK d   0     -37.511  22.079  -5.923  0.00  0.00    -0.776 OA
ATOM     59  H   UNK d   0     -37.206  21.766  -4.984  0.00  0.00     0.167 HD
ENDBRANCH  56  58
ENDBRANCH  55  56
ENDBRANCH  21  55
BRANCH  18  60
ATOM     60  C   UNK d   0     -35.467  20.764  -2.739  0.00  0.00     0.151 C 
BRANCH  60  61
ATOM     61  C   UNK d   0     -35.811  19.752  -3.749  0.00  0.00     0.143 C 
ATOM     62  O   UNK d   0     -36.307  18.642  -3.549  0.00  0.00    -0.650 OA
BRANCH  61  63
ATOM     63  O   UNK d   0     -35.533  20.117  -5.088  0.00  0.00    -0.776 OA
ATOM     64  H   UNK d   0     -34.888  19.587  -5.647  0.00  0.00     0.167 HD
ENDBRANCH  61  63
ENDBRANCH  60  61
ENDBRANCH  18  60
BRANCH  14  65
ATOM     65  C   UNK d   0     -34.636  19.542  -0.089  0.00  0.00     0.052 C 
BRANCH  65  66
ATOM     66  C   UNK d   0     -34.206  18.309  -0.803  0.00  0.00     0.115 C 
BRANCH  66  67
ATOM     67  C   UNK d   0     -34.630  17.024  -0.323  0.00  0.00     0.139 C 
ATOM     68  O   UNK d   0     -33.838  16.366   0.447  0.00  0.00    -0.650 OA
BRANCH  67  69
ATOM     69  O   UNK d   0     -35.831  16.368  -0.589  0.00  0.00    -0.776 OA
ATOM     70  H   UNK d   0     -36.449  16.825  -1.275  0.00  0.00     0.167 HD
ENDBRANCH  67  69
ENDBRANCH  66  67
ENDBRANCH  65  66
ENDBRANCH  14  65
ENDBRANCH   6   7
ENDBRANCH   5   6
ENDBRANCH   2   5
TORSDOF 28
ENDMDL
MODEL 8
REMARK VINA RESULT:      -6.7      1.896      9.781
REMARK  28 active torsions:
REMARK  status: ('A' for Active; 'I' for Inactive)
REMARK    1  A    between atoms: C_2  and  O_3 
REMARK    2  A    between atoms: C_2  and  C_4 
REMARK    3  A    between atoms: C_4  and  C_5 
REMARK    4  A    between atoms: C_5  and  C_6 
REMARK    5  A    between atoms: C_7  and  C_8 
REMARK    6  A    between atoms: C_8  and  C_9 
REMARK    7  A    between atoms: C_9  and  O_11 
REMARK    8  A    between atoms: C_28  and  C_29 
REMARK    9  A    between atoms: C_29  and  C_30 
REMARK   10  A    between atoms: C_30  and  O_32 
REMARK   11  A    between atoms: C_33  and  C_34 
REMARK   12  A    between atoms: C_34  and  C_35 
REMARK   13  A    between atoms: C_35  and  C_36 
REMARK   14  A    between atoms: C_36  and  O_38 
REMARK   15  A    between atoms: C_39  and  C_40 
REMARK   16  A    between atoms: C_40  and  C_41 
REMARK   17  A    between atoms: C_41  and  C_42 
REMARK   18  A    between atoms: C_42  and  O_44 
REMARK   19  A    between atoms: C_45  and  C_46 
REMARK   20  A    between atoms: C_46  and  C_47 
REMARK   21  A    between atoms: C_47  and  O_49 
REMARK   22  A    between atoms: C_50  and  C_51 
REMARK   23  A    between atoms: C_51  and  C_52 
REMARK   24  A    between atoms: C_52  and  O_54 
REMARK   25  A    between atoms: C_55  and  C_56 
REMARK   26  A    between atoms: C_56  and  C_57 
REMARK   27  A    between atoms: C_57  and  C_58 
REMARK   28  A    between atoms: C_58  and  O_60 
ROOT
ATOM      1  O   UNK d   0     -34.380  16.368   4.840  0.00  0.00    -0.650 OA
ATOM      2  C   UNK d   0     -34.614  16.420   3.613  0.00  0.00     0.139 C 
ENDROOT
BRANCH   2   3
ATOM      3  O   UNK d   0     -33.581  16.661   2.740  0.00  0.00    -0.776 OA
ATOM      4  H   UNK d   0     -33.478  17.569   2.282  0.00  0.00     0.167 HD
ENDBRANCH   2   3
BRANCH   2   5
ATOM      5  C   UNK d   0     -36.002  16.224   3.107  0.00  0.00     0.115 C 
BRANCH   5   6
ATOM      6  C   UNK d   0     -36.899  17.320   3.616  0.00  0.00     0.052 C 
BRANCH   6   7
ATOM      7  C   UNK d   0     -38.141  17.492   2.775  0.00  0.00    -0.020 A 
ATOM      8  C   UNK d   0     -39.360  17.116   3.066  0.00  0.00    -0.011 A 
ATOM      9  C   UNK d   0     -40.217  17.485   1.952  0.00  0.00     0.067 A 
ATOM     10  C   UNK d   0     -41.585  17.388   1.651  0.00  0.00     0.062 C 
ATOM     11  N   UNK d   0     -39.436  18.077   1.024  0.00  0.00    -0.248 NA
ATOM     12  C   UNK d   0     -42.279  18.056   0.636  0.00  0.00     0.041 A 
ATOM     13  N   UNK d   0     -41.956  18.295  -0.649  0.00  0.00    -0.355 N 
ATOM     14  C   UNK d   0     -43.513  18.660   0.939  0.00  0.00    -0.022 A 
ATOM     15  C   UNK d   0     -42.950  19.042  -1.167  0.00  0.00     0.042 A 
ATOM     16  H   UNK d   0     -41.054  17.927  -1.185  0.00  0.00     0.166 HD
ATOM     17  C   UNK d   0     -43.117  19.566  -2.465  0.00  0.00     0.062 C 
ATOM     18  C   UNK d   0     -43.944  19.291  -0.201  0.00  0.00    -0.013 A 
ATOM     19  C   UNK d   0     -42.200  20.199  -3.264  0.00  0.00     0.067 A 
ATOM     20  N   UNK d   0     -40.924  20.156  -2.872  0.00  0.00    -0.248 NA
ATOM     21  C   UNK d   0     -42.243  20.968  -4.496  0.00  0.00    -0.011 A 
ATOM     22  C   UNK d   0     -40.130  20.842  -3.757  0.00  0.00     0.066 A 
ATOM     23  C   UNK d   0     -38.769  20.846  -3.490  0.00  0.00     0.062 C 
ATOM     24  C   UNK d   0     -41.029  21.345  -4.777  0.00  0.00    -0.020 A 
ATOM     25  C   UNK d   0     -38.090  20.158  -2.472  0.00  0.00     0.041 A 
ATOM     26  N   UNK d   0     -38.404  19.933  -1.191  0.00  0.00    -0.355 N 
ATOM     27  C   UNK d   0     -36.854  19.548  -2.779  0.00  0.00    -0.022 A 
ATOM     28  C   UNK d   0     -37.410  19.196  -0.670  0.00  0.00     0.042 A 
ATOM     29  H   UNK d   0     -39.306  20.313  -0.651  0.00  0.00     0.166 HD
ATOM     30  C   UNK d   0     -37.226  18.676   0.621  0.00  0.00     0.062 C 
ATOM     31  C   UNK d   0     -36.417  18.937  -1.644  0.00  0.00    -0.013 A 
ATOM     32  C   UNK d   0     -38.176  18.113   1.459  0.00  0.00     0.066 A 
BRANCH   8  33
ATOM     33  C   UNK d   0     -39.806  16.432   4.294  0.00  0.00     0.151 C 
BRANCH  33  34
ATOM     34  C   UNK d   0     -39.937  14.974   4.120  0.00  0.00     0.143 C 
ATOM     35  O   UNK d   0     -41.027  14.463   3.828  0.00  0.00    -0.650 OA
BRANCH  34  36
ATOM     36  O   UNK d   0     -38.831  14.173   4.287  0.00  0.00    -0.776 OA
ATOM     37  H   UNK d   0     -38.170  14.328   5.060  0.00  0.00     0.167 HD
ENDBRANCH  34  36
ENDBRANCH  33  34
ENDBRANCH   8  33
BRANCH  31  38
ATOM     38  C   UNK d   0     -35.141  18.143  -1.494  0.00  0.00     0.151 C 
BRANCH  38  39
ATOM     39  C   UNK d   0     -34.178  18.785  -0.625  0.00  0.00     0.143 C 
ATOM     40  O   UNK d   0     -33.858  19.980  -0.754  0.00  0.00    -0.650 OA
BRANCH  39  41
ATOM     41  O   UNK d   0     -33.581  18.050   0.399  0.00  0.00    -0.776 OA
ATOM     42  H   UNK d   0     -32.634  17.699   0.224  0.00  0.00     0.167 HD
ENDBRANCH  39  41
ENDBRANCH  38  39
ENDBRANCH  31  38
BRANCH  27  43
ATOM     43  C   UNK d   0     -36.092  19.528  -4.080  0.00  0.00     0.052 C 
BRANCH  43  44
ATOM     44  C   UNK d   0     -35.381  20.811  -4.368  0.00  0.00     0.115 C 
BRANCH  44  45
ATOM     45  C   UNK d   0     -33.942  20.572  -4.083  0.00  0.00     0.139 C 
ATOM     46  O   UNK d   0     -33.273  21.513  -3.589  0.00  0.00    -0.650 OA
BRANCH  45  47
ATOM     47  O   UNK d   0     -33.321  19.368  -4.333  0.00  0.00    -0.776 OA
ATOM     48  H   UNK d   0     -33.702  18.666  -4.987  0.00  0.00     0.167 HD
ENDBRANCH  45  47
ENDBRANCH  44  45
ENDBRANCH  43  44
ENDBRANCH  27  43
BRANCH  24  49
ATOM     49  C   UNK d   0     -40.611  22.114  -5.962  0.00  0.00     0.052 C 
BRANCH  49  50
ATOM     50  C   UNK d   0     -39.771  21.257  -6.874  0.00  0.00     0.115 C 
BRANCH  50  51
ATOM     51  C   UNK d   0     -40.472  20.299  -7.719  0.00  0.00     0.139 C 
ATOM     52  O   UNK d   0     -39.956  19.219  -8.089  0.00  0.00    -0.650 OA
BRANCH  51  53
ATOM     53  O   UNK d   0     -41.763  20.575  -8.144  0.00  0.00    -0.776 OA
ATOM     54  H   UNK d   0     -41.989  21.522  -8.393  0.00  0.00     0.167 HD
ENDBRANCH  51  53
ENDBRANCH  50  51
ENDBRANCH  49  50
ENDBRANCH  24  49
BRANCH  21  55
ATOM     55  C   UNK d   0     -43.492  21.243  -5.266  0.00  0.00     0.151 C 
BRANCH  55  56
ATOM     56  C   UNK d   0     -44.212  22.417  -4.751  0.00  0.00     0.143 C 
ATOM     57  O   UNK d   0     -44.976  22.362  -3.767  0.00  0.00    -0.650 OA
BRANCH  56  58
ATOM     58  O   UNK d   0     -44.019  23.634  -5.402  0.00  0.00    -0.776 OA
ATOM     59  H   UNK d   0     -43.412  23.589  -6.240  0.00  0.00     0.167 HD
ENDBRANCH  56  58
ENDBRANCH  55  56
ENDBRANCH  21  55
BRANCH  18  60
ATOM     60  C   UNK d   0     -45.226  20.076  -0.323  0.00  0.00     0.151 C 
BRANCH  60  61
ATOM     61  C   UNK d   0     -44.899  21.450   0.086  0.00  0.00     0.143 C 
ATOM     62  O   UNK d   0     -45.056  21.951   1.200  0.00  0.00    -0.650 OA
BRANCH  61  63
ATOM     63  O   UNK d   0     -44.345  22.265  -0.931  0.00  0.00    -0.776 OA
ATOM     64  H   UNK d   0     -44.595  23.235  -1.011  0.00  0.00     0.167 HD
ENDBRANCH  61  63
ENDBRANCH  60  61
ENDBRANCH  18  60
BRANCH  14  65
ATOM     65  C   UNK d   0     -44.353  18.603   2.183  0.00  0.00     0.052 C 
BRANCH  65  66
ATOM     66  C   UNK d   0     -43.827  19.460   3.280  0.00  0.00     0.115 C 
BRANCH  66  67
ATOM     67  C   UNK d   0     -43.348  18.853   4.489  0.00  0.00     0.139 C 
ATOM     68  O   UNK d   0     -42.962  19.617   5.449  0.00  0.00    -0.650 OA
BRANCH  67  69
ATOM     69  O   UNK d   0     -43.240  17.492   4.777  0.00  0.00    -0.776 OA
ATOM     70  H   UNK d   0     -43.699  16.856   4.110  0.00  0.00     0.167 HD
ENDBRANCH  67  69
ENDBRANCH  66  67
ENDBRANCH  65  66
ENDBRANCH  14  65
ENDBRANCH   6   7
ENDBRANCH   5   6
ENDBRANCH   2   5
TORSDOF 28
ENDMDL
MODEL 9
REMARK VINA RESULT:      -6.7      1.809      3.907
REMARK  28 active torsions:
REMARK  status: ('A' for Active; 'I' for Inactive)
REMARK    1  A    between atoms: C_2  and  O_3 
REMARK    2  A    between atoms: C_2  and  C_4 
REMARK    3  A    between atoms: C_4  and  C_5 
REMARK    4  A    between atoms: C_5  and  C_6 
REMARK    5  A    between atoms: C_7  and  C_8 
REMARK    6  A    between atoms: C_8  and  C_9 
REMARK    7  A    between atoms: C_9  and  O_11 
REMARK    8  A    between atoms: C_28  and  C_29 
REMARK    9  A    between atoms: C_29  and  C_30 
REMARK   10  A    between atoms: C_30  and  O_32 
REMARK   11  A    between atoms: C_33  and  C_34 
REMARK   12  A    between atoms: C_34  and  C_35 
REMARK   13  A    between atoms: C_35  and  C_36 
REMARK   14  A    between atoms: C_36  and  O_38 
REMARK   15  A    between atoms: C_39  and  C_40 
REMARK   16  A    between atoms: C_40  and  C_41 
REMARK   17  A    between atoms: C_41  and  C_42 
REMARK   18  A    between atoms: C_42  and  O_44 
REMARK   19  A    between atoms: C_45  and  C_46 
REMARK   20  A    between atoms: C_46  and  C_47 
REMARK   21  A    between atoms: C_47  and  O_49 
REMARK   22  A    between atoms: C_50  and  C_51 
REMARK   23  A    between atoms: C_51  and  C_52 
REMARK   24  A    between atoms: C_52  and  O_54 
REMARK   25  A    between atoms: C_55  and  C_56 
REMARK   26  A    between atoms: C_56  and  C_57 
REMARK   27  A    between atoms: C_57  and  C_58 
REMARK   28  A    between atoms: C_58  and  O_60 
ROOT
ATOM      1  O   UNK d   0     -44.208  19.635   6.335  0.00  0.00    -0.650 OA
ATOM      2  C   UNK d   0     -44.412  18.866   5.370  0.00  0.00     0.139 C 
ENDROOT
BRANCH   2   3
ATOM      3  O   UNK d   0     -44.492  17.512   5.593  0.00  0.00    -0.776 OA
ATOM      4  H   UNK d   0     -45.394  17.031   5.596  0.00  0.00     0.167 HD
ENDBRANCH   2   3
BRANCH   2   5
ATOM      5  C   UNK d   0     -44.565  19.416   3.993  0.00  0.00     0.115 C 
BRANCH   5   6
ATOM      6  C   UNK d   0     -44.852  18.305   3.020  0.00  0.00     0.052 C 
BRANCH   6   7
ATOM      7  C   UNK d   0     -43.967  18.359   1.798  0.00  0.00    -0.020 A 
ATOM      8  C   UNK d   0     -44.335  18.514   0.552  0.00  0.00    -0.011 A 
ATOM      9  C   UNK d   0     -43.138  18.494  -0.271  0.00  0.00     0.067 A 
ATOM     10  C   UNK d   0     -42.846  18.626  -1.638  0.00  0.00     0.062 C 
ATOM     11  N   UNK d   0     -42.086  18.317   0.556  0.00  0.00    -0.248 NA
ATOM     12  C   UNK d   0     -41.595  18.859  -2.219  0.00  0.00     0.041 A 
ATOM     13  N   UNK d   0     -40.383  18.334  -1.955  0.00  0.00    -0.355 N 
ATOM     14  C   UNK d   0     -41.483  19.835  -3.226  0.00  0.00    -0.022 A 
ATOM     15  C   UNK d   0     -39.505  18.958  -2.762  0.00  0.00     0.042 A 
ATOM     16  H   UNK d   0     -40.156  17.525  -1.226  0.00  0.00     0.166 HD
ATOM     17  C   UNK d   0     -38.112  18.793  -2.897  0.00  0.00     0.062 C 
ATOM     18  C   UNK d   0     -40.157  19.906  -3.574  0.00  0.00    -0.013 A 
ATOM     19  C   UNK d   0     -37.158  18.678  -1.918  0.00  0.00     0.067 A 
ATOM     20  N   UNK d   0     -37.593  18.500  -0.668  0.00  0.00    -0.248 NA
ATOM     21  C   UNK d   0     -35.706  18.715  -1.865  0.00  0.00    -0.011 A 
ATOM     22  C   UNK d   0     -36.531  18.419   0.199  0.00  0.00     0.066 A 
ATOM     23  C   UNK d   0     -36.840  18.195   1.533  0.00  0.00     0.062 C 
ATOM     24  C   UNK d   0     -35.346  18.567  -0.622  0.00  0.00    -0.020 A 
ATOM     25  C   UNK d   0     -38.103  17.950   2.094  0.00  0.00     0.041 A 
ATOM     26  N   UNK d   0     -39.305  18.482   1.842  0.00  0.00    -0.355 N 
ATOM     27  C   UNK d   0     -38.215  16.967   3.101  0.00  0.00    -0.022 A 
ATOM     28  C   UNK d   0     -40.181  17.868   2.652  0.00  0.00     0.042 A 
ATOM     29  H   UNK d   0     -39.529  19.302   1.116  0.00  0.00     0.166 HD
ATOM     30  C   UNK d   0     -41.567  18.029   2.803  0.00  0.00     0.062 C 
ATOM     31  C   UNK d   0     -39.526  16.908   3.460  0.00  0.00    -0.013 A 
ATOM     32  C   UNK d   0     -42.518  18.229   1.814  0.00  0.00     0.066 A 
BRANCH   8  33
ATOM     33  C   UNK d   0     -45.712  18.675   0.050  0.00  0.00     0.151 C 
BRANCH  33  34
ATOM     34  C   UNK d   0     -45.968  20.022  -0.491  0.00  0.00     0.143 C 
ATOM     35  O   UNK d   0     -46.434  20.173  -1.630  0.00  0.00    -0.650 OA
BRANCH  34  36
ATOM     36  O   UNK d   0     -45.683  21.125   0.280  0.00  0.00    -0.776 OA
ATOM     37  H   UNK d   0     -45.955  21.169   1.271  0.00  0.00     0.167 HD
ENDBRANCH  34  36
ENDBRANCH  33  34
ENDBRANCH   8  33
BRANCH  31  38
ATOM     38  C   UNK d   0     -40.127  15.988   4.497  0.00  0.00     0.151 C 
BRANCH  38  39
ATOM     39  C   UNK d   0     -40.518  14.706   3.951  0.00  0.00     0.143 C 
ATOM     40  O   UNK d   0     -39.769  13.713   3.981  0.00  0.00    -0.650 OA
BRANCH  39  41
ATOM     41  O   UNK d   0     -41.777  14.564   3.368  0.00  0.00    -0.776 OA
ATOM     42  H   UNK d   0     -41.834  13.977   2.529  0.00  0.00     0.167 HD
ENDBRANCH  39  41
ENDBRANCH  38  39
ENDBRANCH  31  38
BRANCH  27  43
ATOM     43  C   UNK d   0     -37.144  16.105   3.722  0.00  0.00     0.052 C 
BRANCH  43  44
ATOM     44  C   UNK d   0     -36.045  16.893   4.357  0.00  0.00     0.115 C 
BRANCH  44  45
ATOM     45  C   UNK d   0     -34.780  16.169   4.064  0.00  0.00     0.139 C 
ATOM     46  O   UNK d   0     -34.846  14.940   3.812  0.00  0.00    -0.650 OA
BRANCH  45  47
ATOM     47  O   UNK d   0     -33.549  16.789   4.053  0.00  0.00    -0.776 OA
ATOM     48  H   UNK d   0     -32.862  16.683   4.817  0.00  0.00     0.167 HD
ENDBRANCH  45  47
ENDBRANCH  44  45
ENDBRANCH  43  44
ENDBRANCH  27  43
BRANCH  24  49
ATOM     49  C   UNK d   0     -33.962  18.505  -0.121  0.00  0.00     0.052 C 
BRANCH  49  50
ATOM     50  C   UNK d   0     -33.441  19.893   0.152  0.00  0.00     0.115 C 
BRANCH  50  51
ATOM     51  C   UNK d   0     -33.238  20.264   1.546  0.00  0.00     0.139 C 
ATOM     52  O   UNK d   0     -34.167  20.262   2.389  0.00  0.00    -0.650 OA
BRANCH  51  53
ATOM     53  O   UNK d   0     -31.976  20.641   1.980  0.00  0.00    -0.776 OA
ATOM     54  H   UNK d   0     -31.190  20.082   1.696  0.00  0.00     0.167 HD
ENDBRANCH  51  53
ENDBRANCH  50  51
ENDBRANCH  49  50
ENDBRANCH  24  49
BRANCH  21  55
ATOM     55  C   UNK d   0     -34.831  18.890  -3.061  0.00  0.00     0.151 C 
BRANCH  55  56
ATOM     56  C   UNK d   0     -34.976  20.225  -3.660  0.00  0.00     0.143 C 
ATOM     57  O   UNK d   0     -34.901  21.276  -2.994  0.00  0.00    -0.650 OA
BRANCH  56  58
ATOM     58  O   UNK d   0     -35.207  20.299  -5.033  0.00  0.00    -0.776 OA
ATOM     59  H   UNK d   0     -35.938  20.976  -5.317  0.00  0.00     0.167 HD
ENDBRANCH  56  58
ENDBRANCH  55  56
ENDBRANCH  21  55
BRANCH  18  60
ATOM     60  C   UNK d   0     -39.586  20.834  -4.617  0.00  0.00     0.151 C 
BRANCH  60  61
ATOM     61  C   UNK d   0     -38.875  21.886  -3.875  0.00  0.00     0.143 C 
ATOM     62  O   UNK d   0     -39.288  22.516  -2.901  0.00  0.00    -0.650 OA
BRANCH  61  63
ATOM     63  O   UNK d   0     -37.578  22.189  -4.353  0.00  0.00    -0.776 OA
ATOM     64  H   UNK d   0     -37.146  21.632  -5.069  0.00  0.00     0.167 HD
ENDBRANCH  61  63
ENDBRANCH  60  61
ENDBRANCH  18  60
BRANCH  14  65
ATOM     65  C   UNK d   0     -42.538  20.627  -3.946  0.00  0.00     0.052 C 
BRANCH  65  66
ATOM     66  C   UNK d   0     -42.695  22.006  -3.411  0.00  0.00     0.115 C 
BRANCH  66  67
ATOM     67  C   UNK d   0     -43.580  22.244  -2.306  0.00  0.00     0.139 C 
ATOM     68  O   UNK d   0     -43.137  22.056  -1.113  0.00  0.00    -0.650 OA
BRANCH  67  69
ATOM     69  O   UNK d   0     -44.908  22.669  -2.352  0.00  0.00    -0.776 OA
ATOM     70  H   UNK d   0     -45.502  22.367  -1.566  0.00  0.00     0.167 HD
ENDBRANCH  67  69
ENDBRANCH  66  67
ENDBRANCH  65  66
ENDBRANCH  14  65
ENDBRANCH   6   7
ENDBRANCH   5   6
ENDBRANCH   2   5
TORSDOF 28
ENDMDL
MODEL 10
REMARK VINA RESULT:      -6.7      1.956      8.335
REMARK  28 active torsions:
REMARK  status: ('A' for Active; 'I' for Inactive)
REMARK    1  A    between atoms: C_2  and  O_3 
REMARK    2  A    between atoms: C_2  and  C_4 
REMARK    3  A    between atoms: C_4  and  C_5 
REMARK    4  A    between atoms: C_5  and  C_6 
REMARK    5  A    between atoms: C_7  and  C_8 
REMARK    6  A    between atoms: C_8  and  C_9 
REMARK    7  A    between atoms: C_9  and  O_11 
REMARK    8  A    between atoms: C_28  and  C_29 
REMARK    9  A    between atoms: C_29  and  C_30 
REMARK   10  A    between atoms: C_30  and  O_32 
REMARK   11  A    between atoms: C_33  and  C_34 
REMARK   12  A    between atoms: C_34  and  C_35 
REMARK   13  A    between atoms: C_35  and  C_36 
REMARK   14  A    between atoms: C_36  and  O_38 
REMARK   15  A    between atoms: C_39  and  C_40 
REMARK   16  A    between atoms: C_40  and  C_41 
REMARK   17  A    between atoms: C_41  and  C_42 
REMARK   18  A    between atoms: C_42  and  O_44 
REMARK   19  A    between atoms: C_45  and  C_46 
REMARK   20  A    between atoms: C_46  and  C_47 
REMARK   21  A    between atoms: C_47  and  O_49 
REMARK   22  A    between atoms: C_50  and  C_51 
REMARK   23  A    between atoms: C_51  and  C_52 
REMARK   24  A    between atoms: C_52  and  O_54 
REMARK   25  A    between atoms: C_55  and  C_56 
REMARK   26  A    between atoms: C_56  and  C_57 
REMARK   27  A    between atoms: C_57  and  C_58 
REMARK   28  A    between atoms: C_58  and  O_60 
ROOT
ATOM      1  O   UNK d   0     -33.600  16.729   0.172  0.00  0.00    -0.650 OA
ATOM      2  C   UNK d   0     -34.432  16.082   0.847  0.00  0.00     0.139 C 
ENDROOT
BRANCH   2   3
ATOM      3  O   UNK d   0     -34.039  14.919   1.465  0.00  0.00    -0.776 OA
ATOM      4  H   UNK d   0     -33.753  14.103   0.920  0.00  0.00     0.167 HD
ENDBRANCH   2   3
BRANCH   2   5
ATOM      5  C   UNK d   0     -35.834  16.571   0.976  0.00  0.00     0.115 C 
BRANCH   5   6
ATOM      6  C   UNK d   0     -35.842  18.007   1.426  0.00  0.00     0.052 C 
BRANCH   6   7
ATOM      7  C   UNK d   0     -36.733  18.878   0.574  0.00  0.00    -0.020 A 
ATOM      8  C   UNK d   0     -36.375  19.864  -0.209  0.00  0.00    -0.011 A 
ATOM      9  C   UNK d   0     -37.577  20.410  -0.816  0.00  0.00     0.067 A 
ATOM     10  C   UNK d   0     -37.874  21.428  -1.735  0.00  0.00     0.062 C 
ATOM     11  N   UNK d   0     -38.623  19.699  -0.343  0.00  0.00    -0.248 NA
ATOM     12  C   UNK d   0     -39.078  21.628  -2.419  0.00  0.00     0.041 A 
ATOM     13  N   UNK d   0     -40.357  21.555  -2.002  0.00  0.00    -0.355 N 
ATOM     14  C   UNK d   0     -39.041  21.904  -3.797  0.00  0.00    -0.022 A 
ATOM     15  C   UNK d   0     -41.131  21.770  -3.082  0.00  0.00     0.042 A 
ATOM     16  H   UNK d   0     -40.705  21.374  -0.961  0.00  0.00     0.166 HD
ATOM     17  C   UNK d   0     -42.534  21.805  -3.208  0.00  0.00     0.062 C 
ATOM     18  C   UNK d   0     -40.341  21.993  -4.227  0.00  0.00    -0.013 A 
ATOM     19  C   UNK d   0     -43.468  20.946  -2.687  0.00  0.00     0.067 A 
ATOM     20  N   UNK d   0     -43.041  20.067  -1.777  0.00  0.00    -0.248 NA
ATOM     21  C   UNK d   0     -44.889  20.708  -2.878  0.00  0.00    -0.011 A 
ATOM     22  C   UNK d   0     -44.079  19.270  -1.361  0.00  0.00     0.066 A 
ATOM     23  C   UNK d   0     -43.781  18.332  -0.383  0.00  0.00     0.062 C 
ATOM     24  C   UNK d   0     -45.239  19.723  -2.102  0.00  0.00    -0.020 A 
ATOM     25  C   UNK d   0     -42.568  18.156   0.300  0.00  0.00     0.041 A 
ATOM     26  N   UNK d   0     -41.298  18.214  -0.117  0.00  0.00    -0.355 N 
ATOM     27  C   UNK d   0     -42.607  17.883   1.685  0.00  0.00    -0.022 A 
ATOM     28  C   UNK d   0     -40.524  17.991   0.957  0.00  0.00     0.042 A 
ATOM     29  H   UNK d   0     -40.950  18.385  -1.166  0.00  0.00     0.166 HD
ATOM     30  C   UNK d   0     -39.128  17.944   1.094  0.00  0.00     0.062 C 
ATOM     31  C   UNK d   0     -41.318  17.778   2.108  0.00  0.00    -0.013 A 
ATOM     32  C   UNK d   0     -38.182  18.762   0.497  0.00  0.00     0.066 A 
BRANCH   8  33
ATOM     33  C   UNK d   0     -35.004  20.354  -0.442  0.00  0.00     0.151 C 
BRANCH  33  34
ATOM     34  C   UNK d   0     -34.344  19.684  -1.578  0.00  0.00     0.143 C 
ATOM     35  O   UNK d   0     -33.313  20.152  -2.081  0.00  0.00    -0.650 OA
BRANCH  34  36
ATOM     36  O   UNK d   0     -34.884  18.525  -2.084  0.00  0.00    -0.776 OA
ATOM     37  H   UNK d   0     -34.615  18.172  -3.013  0.00  0.00     0.167 HD
ENDBRANCH  34  36
ENDBRANCH  33  34
ENDBRANCH   8  33
BRANCH  31  38
ATOM     38  C   UNK d   0     -40.864  17.504   3.523  0.00  0.00     0.151 C 
BRANCH  38  39
ATOM     39  C   UNK d   0     -40.559  16.109   3.755  0.00  0.00     0.143 C 
ATOM     40  O   UNK d   0     -39.433  15.725   4.119  0.00  0.00    -0.650 OA
BRANCH  39  41
ATOM     41  O   UNK d   0     -41.553  15.148   3.570  0.00  0.00    -0.776 OA
ATOM     42  H   UNK d   0     -42.025  15.143   2.660  0.00  0.00     0.167 HD
ENDBRANCH  39  41
ENDBRANCH  38  39
ENDBRANCH  31  38
BRANCH  27  43
ATOM     43  C   UNK d   0     -43.797  17.720   2.597  0.00  0.00     0.052 C 
BRANCH  43  44
ATOM     44  C   UNK d   0     -44.068  18.927   3.436  0.00  0.00     0.115 C 
BRANCH  44  45
ATOM     45  C   UNK d   0     -45.022  18.503   4.494  0.00  0.00     0.139 C 
ATOM     46  O   UNK d   0     -46.113  19.118   4.587  0.00  0.00    -0.650 OA
BRANCH  45  47
ATOM     47  O   UNK d   0     -44.761  17.467   5.364  0.00  0.00    -0.776 OA
ATOM     48  H   UNK d   0     -45.169  17.414   6.311  0.00  0.00     0.167 HD
ENDBRANCH  45  47
ENDBRANCH  44  45
ENDBRANCH  43  44
ENDBRANCH  27  43
BRANCH  24  49
ATOM     49  C   UNK d   0     -46.599  19.177  -1.951  0.00  0.00     0.052 C 
BRANCH  49  50
ATOM     50  C   UNK d   0     -46.581  17.676  -2.090  0.00  0.00     0.115 C 
BRANCH  50  51
ATOM     51  C   UNK d   0     -47.313  17.103  -3.211  0.00  0.00     0.139 C 
ATOM     52  O   UNK d   0     -48.198  16.227  -3.063  0.00  0.00    -0.650 OA
BRANCH  51  53
ATOM     53  O   UNK d   0     -47.036  17.527  -4.501  0.00  0.00    -0.776 OA
ATOM     54  H   UNK d   0     -47.797  17.860  -5.067  0.00  0.00     0.167 HD
ENDBRANCH  51  53
ENDBRANCH  50  51
ENDBRANCH  49  50
ENDBRANCH  24  49
BRANCH  21  55
ATOM     55  C   UNK d   0     -45.749  21.492  -3.813  0.00  0.00     0.151 C 
BRANCH  55  56
ATOM     56  C   UNK d   0     -45.848  20.856  -5.136  0.00  0.00     0.143 C 
ATOM     57  O   UNK d   0     -46.885  20.291  -5.537  0.00  0.00    -0.650 OA
BRANCH  56  58
ATOM     58  O   UNK d   0     -44.726  20.898  -5.962  0.00  0.00    -0.776 OA
ATOM     59  H   UNK d   0     -43.973  21.534  -5.643  0.00  0.00     0.167 HD
ENDBRANCH  56  58
ENDBRANCH  55  56
ENDBRANCH  21  55
BRANCH  18  60
ATOM     60  C   UNK d   0     -40.766  22.270  -5.648  0.00  0.00     0.151 C 
BRANCH  60  61
ATOM     61  C   UNK d   0     -41.073  20.960  -6.241  0.00  0.00     0.143 C 
ATOM     62  O   UNK d   0     -40.514  19.889  -6.004  0.00  0.00    -0.650 OA
BRANCH  61  63
ATOM     63  O   UNK d   0     -42.131  20.958  -7.181  0.00  0.00    -0.776 OA
ATOM     64  H   UNK d   0     -42.412  21.802  -7.648  0.00  0.00     0.167 HD
ENDBRANCH  61  63
ENDBRANCH  60  61
ENDBRANCH  18  60
BRANCH  14  65
ATOM     65  C   UNK d   0     -37.881  22.186  -4.710  0.00  0.00     0.052 C 
BRANCH  65  66
ATOM     66  C   UNK d   0     -37.421  20.983  -5.455  0.00  0.00     0.115 C 
BRANCH  66  67
ATOM     67  C   UNK d   0     -36.602  20.007  -4.794  0.00  0.00     0.139 C 
ATOM     68  O   UNK d   0     -35.358  20.275  -4.607  0.00  0.00    -0.650 OA
BRANCH  67  69
ATOM     69  O   UNK d   0     -36.987  18.757  -4.309  0.00  0.00    -0.776 OA
ATOM     70  H   UNK d   0     -37.960  18.482  -4.504  0.00  0.00     0.167 HD
ENDBRANCH  67  69
ENDBRANCH  66  67
ENDBRANCH  65  66
ENDBRANCH  14  65
ENDBRANCH   6   7
ENDBRANCH   5   6
ENDBRANCH   2   5
TORSDOF 28
ENDMDL
MODEL 11
REMARK VINA RESULT:      -6.7      2.121      7.880
REMARK  28 active torsions:
REMARK  status: ('A' for Active; 'I' for Inactive)
REMARK    1  A    between atoms: C_2  and  O_3 
REMARK    2  A    between atoms: C_2  and  C_4 
REMARK    3  A    between atoms: C_4  and  C_5 
REMARK    4  A    between atoms: C_5  and  C_6 
REMARK    5  A    between atoms: C_7  and  C_8 
REMARK    6  A    between atoms: C_8  and  C_9 
REMARK    7  A    between atoms: C_9  and  O_11 
REMARK    8  A    between atoms: C_28  and  C_29 
REMARK    9  A    between atoms: C_29  and  C_30 
REMARK   10  A    between atoms: C_30  and  O_32 
REMARK   11  A    between atoms: C_33  and  C_34 
REMARK   12  A    between atoms: C_34  and  C_35 
REMARK   13  A    between atoms: C_35  and  C_36 
REMARK   14  A    between atoms: C_36  and  O_38 
REMARK   15  A    between atoms: C_39  and  C_40 
REMARK   16  A    between atoms: C_40  and  C_41 
REMARK   17  A    between atoms: C_41  and  C_42 
REMARK   18  A    between atoms: C_42  and  O_44 
REMARK   19  A    between atoms: C_45  and  C_46 
REMARK   20  A    between atoms: C_46  and  C_47 
REMARK   21  A    between atoms: C_47  and  O_49 
REMARK   22  A    between atoms: C_50  and  C_51 
REMARK   23  A    between atoms: C_51  and  C_52 
REMARK   24  A    between atoms: C_52  and  O_54 
REMARK   25  A    between atoms: C_55  and  C_56 
REMARK   26  A    between atoms: C_56  and  C_57 
REMARK   27  A    between atoms: C_57  and  C_58 
REMARK   28  A    between atoms: C_58  and  O_60 
ROOT
ATOM      1  O   UNK d   0     -41.008  20.487 -10.526  0.00  0.00    -0.650 OA
ATOM      2  C   UNK d   0     -40.287  20.859  -9.574  0.00  0.00     0.139 C 
ENDROOT
BRANCH   2   3
ATOM      3  O   UNK d   0     -39.302  21.792  -9.799  0.00  0.00    -0.776 OA
ATOM      4  H   UNK d   0     -38.346  21.506 -10.018  0.00  0.00     0.167 HD
ENDBRANCH   2   3
BRANCH   2   5
ATOM      5  C   UNK d   0     -40.497  20.295  -8.211  0.00  0.00     0.115 C 
BRANCH   5   6
ATOM      6  C   UNK d   0     -40.263  21.355  -7.170  0.00  0.00     0.052 C 
BRANCH   6   7
ATOM      7  C   UNK d   0     -41.212  21.241  -6.000  0.00  0.00    -0.020 A 
ATOM      8  C   UNK d   0     -42.407  21.761  -5.888  0.00  0.00    -0.011 A 
ATOM      9  C   UNK d   0     -42.934  21.389  -4.586  0.00  0.00     0.067 A 
ATOM     10  C   UNK d   0     -44.128  21.599  -3.879  0.00  0.00     0.062 C 
ATOM     11  N   UNK d   0     -41.990  20.647  -3.969  0.00  0.00    -0.248 NA
ATOM     12  C   UNK d   0     -44.566  20.923  -2.735  0.00  0.00     0.041 A 
ATOM     13  N   UNK d   0     -43.908  20.547  -1.621  0.00  0.00    -0.355 N 
ATOM     14  C   UNK d   0     -45.897  20.473  -2.677  0.00  0.00    -0.022 A 
ATOM     15  C   UNK d   0     -44.786  19.865  -0.862  0.00  0.00     0.042 A 
ATOM     16  H   UNK d   0     -42.850  20.777  -1.368  0.00  0.00     0.166 HD
ATOM     17  C   UNK d   0     -44.623  19.255   0.398  0.00  0.00     0.062 C 
ATOM     18  C   UNK d   0     -46.044  19.797  -1.492  0.00  0.00    -0.013 A 
ATOM     19  C   UNK d   0     -43.594  18.469   0.849  0.00  0.00     0.067 A 
ATOM     20  N   UNK d   0     -42.497  18.415   0.090  0.00  0.00    -0.248 NA
ATOM     21  C   UNK d   0     -43.363  17.609   1.998  0.00  0.00    -0.011 A 
ATOM     22  C   UNK d   0     -41.565  17.582   0.659  0.00  0.00     0.066 A 
ATOM     23  C   UNK d   0     -40.355  17.463  -0.010  0.00  0.00     0.062 C 
ATOM     24  C   UNK d   0     -42.175  17.090   1.878  0.00  0.00    -0.020 A 
ATOM     25  C   UNK d   0     -39.930  18.161  -1.151  0.00  0.00     0.041 A 
ATOM     26  N   UNK d   0     -40.580  18.521  -2.264  0.00  0.00    -0.355 N 
ATOM     27  C   UNK d   0     -38.595  18.616  -1.206  0.00  0.00    -0.022 A 
ATOM     28  C   UNK d   0     -39.704  19.194  -3.027  0.00  0.00     0.042 A 
ATOM     29  H   UNK d   0     -41.641  18.280  -2.522  0.00  0.00     0.166 HD
ATOM     30  C   UNK d   0     -39.850  19.798  -4.286  0.00  0.00     0.062 C 
ATOM     31  C   UNK d   0     -38.443  19.271  -2.389  0.00  0.00    -0.013 A 
ATOM     32  C   UNK d   0     -40.930  20.521  -4.767  0.00  0.00     0.066 A 
BRANCH   8  33
ATOM     33  C   UNK d   0     -43.111  22.584  -6.889  0.00  0.00     0.151 C 
BRANCH  33  34
ATOM     34  C   UNK d   0     -44.117  21.821  -7.650  0.00  0.00     0.143 C 
ATOM     35  O   UNK d   0     -43.819  21.264  -8.716  0.00  0.00    -0.650 OA
BRANCH  34  36
ATOM     36  O   UNK d   0     -45.402  21.730  -7.169  0.00  0.00    -0.776 OA
ATOM     37  H   UNK d   0     -45.833  20.818  -6.966  0.00  0.00     0.167 HD
ENDBRANCH  34  36
ENDBRANCH  33  34
ENDBRANCH   8  33
BRANCH  31  38
ATOM     38  C   UNK d   0     -37.182  19.942  -2.881  0.00  0.00     0.151 C 
BRANCH  38  39
ATOM     39  C   UNK d   0     -36.244  19.011  -3.471  0.00  0.00     0.143 C 
ATOM     40  O   UNK d   0     -35.095  18.851  -3.024  0.00  0.00    -0.650 OA
BRANCH  39  41
ATOM     41  O   UNK d   0     -36.629  18.260  -4.581  0.00  0.00    -0.776 OA
ATOM     42  H   UNK d   0     -37.627  18.042  -4.668  0.00  0.00     0.167 HD
ENDBRANCH  39  41
ENDBRANCH  38  39
ENDBRANCH  31  38
BRANCH  27  43
ATOM     43  C   UNK d   0     -37.484  18.451  -0.199  0.00  0.00     0.052 C 
BRANCH  43  44
ATOM     44  C   UNK d   0     -37.637  19.332   0.998  0.00  0.00     0.115 C 
BRANCH  44  45
ATOM     45  C   UNK d   0     -36.806  18.733   2.075  0.00  0.00     0.139 C 
ATOM     46  O   UNK d   0     -37.153  18.925   3.267  0.00  0.00    -0.650 OA
BRANCH  45  47
ATOM     47  O   UNK d   0     -35.682  17.978   1.819  0.00  0.00    -0.776 OA
ATOM     48  H   UNK d   0     -35.727  16.993   1.510  0.00  0.00     0.167 HD
ENDBRANCH  45  47
ENDBRANCH  44  45
ENDBRANCH  43  44
ENDBRANCH  27  43
BRANCH  24  49
ATOM     49  C   UNK d   0     -41.520  16.188   2.841  0.00  0.00     0.052 C 
BRANCH  49  50
ATOM     50  C   UNK d   0     -40.249  16.809   3.361  0.00  0.00     0.115 C 
BRANCH  50  51
ATOM     51  C   UNK d   0     -40.313  17.467   4.659  0.00  0.00     0.139 C 
ATOM     52  O   UNK d   0     -41.224  17.237   5.490  0.00  0.00    -0.650 OA
BRANCH  51  53
ATOM     53  O   UNK d   0     -39.339  18.389   5.010  0.00  0.00    -0.776 OA
ATOM     54  H   UNK d   0     -39.036  19.048   4.315  0.00  0.00     0.167 HD
ENDBRANCH  51  53
ENDBRANCH  50  51
ENDBRANCH  49  50
ENDBRANCH  24  49
BRANCH  21  55
ATOM     55  C   UNK d   0     -44.351  17.400   3.097  0.00  0.00     0.151 C 
BRANCH  55  56
ATOM     56  C   UNK d   0     -44.045  18.223   4.277  0.00  0.00     0.143 C 
ATOM     57  O   UNK d   0     -43.576  19.375   4.194  0.00  0.00    -0.650 OA
BRANCH  56  58
ATOM     58  O   UNK d   0     -44.297  17.674   5.534  0.00  0.00    -0.776 OA
ATOM     59  H   UNK d   0     -43.482  17.217   5.982  0.00  0.00     0.167 HD
ENDBRANCH  56  58
ENDBRANCH  55  56
ENDBRANCH  21  55
BRANCH  18  60
ATOM     60  C   UNK d   0     -47.318  19.138  -1.024  0.00  0.00     0.151 C 
BRANCH  60  61
ATOM     61  C   UNK d   0     -47.287  17.770  -1.564  0.00  0.00     0.143 C 
ATOM     62  O   UNK d   0     -46.400  17.263  -2.250  0.00  0.00    -0.650 OA
BRANCH  61  63
ATOM     63  O   UNK d   0     -48.412  16.971  -1.245  0.00  0.00    -0.776 OA
ATOM     64  H   UNK d   0     -49.259  17.030  -1.782  0.00  0.00     0.167 HD
ENDBRANCH  61  63
ENDBRANCH  60  61
ENDBRANCH  18  60
BRANCH  14  65
ATOM     65  C   UNK d   0     -47.056  20.716  -3.603  0.00  0.00     0.052 C 
BRANCH  65  66
ATOM     66  C   UNK d   0     -47.155  19.704  -4.688  0.00  0.00     0.115 C 
BRANCH  66  67
ATOM     67  C   UNK d   0     -48.208  19.804  -5.660  0.00  0.00     0.139 C 
ATOM     68  O   UNK d   0     -48.029  20.564  -6.682  0.00  0.00    -0.650 OA
BRANCH  67  69
ATOM     69  O   UNK d   0     -49.446  19.163  -5.645  0.00  0.00    -0.776 OA
ATOM     70  H   UNK d   0     -49.450  18.204  -5.269  0.00  0.00     0.167 HD
ENDBRANCH  67  69
ENDBRANCH  66  67
ENDBRANCH  65  66
ENDBRANCH  14  65
ENDBRANCH   6   7
ENDBRANCH   5   6
ENDBRANCH   2   5
TORSDOF 28
ENDMDL
MODEL 12
REMARK VINA RESULT:      -6.6      6.891     12.897
REMARK  28 active torsions:
REMARK  status: ('A' for Active; 'I' for Inactive)
REMARK    1  A    between atoms: C_2  and  O_3 
REMARK    2  A    between atoms: C_2  and  C_4 
REMARK    3  A    between atoms: C_4  and  C_5 
REMARK    4  A    between atoms: C_5  and  C_6 
REMARK    5  A    between atoms: C_7  and  C_8 
REMARK    6  A    between atoms: C_8  and  C_9 
REMARK    7  A    between atoms: C_9  and  O_11 
REMARK    8  A    between atoms: C_28  and  C_29 
REMARK    9  A    between atoms: C_29  and  C_30 
REMARK   10  A    between atoms: C_30  and  O_32 
REMARK   11  A    between atoms: C_33  and  C_34 
REMARK   12  A    between atoms: C_34  and  C_35 
REMARK   13  A    between atoms: C_35  and  C_36 
REMARK   14  A    between atoms: C_36  and  O_38 
REMARK   15  A    between atoms: C_39  and  C_40 
REMARK   16  A    between atoms: C_40  and  C_41 
REMARK   17  A    between atoms: C_41  and  C_42 
REMARK   18  A    between atoms: C_42  and  O_44 
REMARK   19  A    between atoms: C_45  and  C_46 
REMARK   20  A    between atoms: C_46  and  C_47 
REMARK   21  A    between atoms: C_47  and  O_49 
REMARK   22  A    between atoms: C_50  and  C_51 
REMARK   23  A    between atoms: C_51  and  C_52 
REMARK   24  A    between atoms: C_52  and  O_54 
REMARK   25  A    between atoms: C_55  and  C_56 
REMARK   26  A    between atoms: C_56  and  C_57 
REMARK   27  A    between atoms: C_57  and  C_58 
REMARK   28  A    between atoms: C_58  and  O_60 
ROOT
ATOM      1  O   UNK d   0     -54.715  15.221   1.748  0.00  0.00    -0.650 OA
ATOM      2  C   UNK d   0     -54.601  14.490   2.757  0.00  0.00     0.139 C 
ENDROOT
BRANCH   2   3
ATOM      3  O   UNK d   0     -54.093  13.221   2.615  0.00  0.00    -0.776 OA
ATOM      4  H   UNK d   0     -54.462  12.581   1.909  0.00  0.00     0.167 HD
ENDBRANCH   2   3
BRANCH   2   5
ATOM      5  C   UNK d   0     -55.014  14.995   4.097  0.00  0.00     0.115 C 
BRANCH   5   6
ATOM      6  C   UNK d   0     -53.970  14.650   5.124  0.00  0.00     0.052 C 
BRANCH   6   7
ATOM      7  C   UNK d   0     -53.150  15.847   5.543  0.00  0.00    -0.020 A 
ATOM      8  C   UNK d   0     -53.279  16.561   6.632  0.00  0.00    -0.011 A 
ATOM      9  C   UNK d   0     -52.275  17.612   6.596  0.00  0.00     0.067 A 
ATOM     10  C   UNK d   0     -51.879  18.663   7.438  0.00  0.00     0.062 C 
ATOM     11  N   UNK d   0     -51.583  17.465   5.447  0.00  0.00    -0.248 NA
ATOM     12  C   UNK d   0     -50.698  19.409   7.363  0.00  0.00     0.041 A 
ATOM     13  N   UNK d   0     -50.047  19.935   6.308  0.00  0.00    -0.355 N 
ATOM     14  C   UNK d   0     -49.972  19.653   8.543  0.00  0.00    -0.022 A 
ATOM     15  C   UNK d   0     -48.922  20.499   6.787  0.00  0.00     0.042 A 
ATOM     16  H   UNK d   0     -50.385  19.924   5.248  0.00  0.00     0.166 HD
ATOM     17  C   UNK d   0     -47.888  21.185   6.119  0.00  0.00     0.062 C 
ATOM     18  C   UNK d   0     -48.840  20.342   8.184  0.00  0.00    -0.013 A 
ATOM     19  C   UNK d   0     -47.247  20.855   4.952  0.00  0.00     0.067 A 
ATOM     20  N   UNK d   0     -47.780  19.866   4.229  0.00  0.00    -0.248 NA
ATOM     21  C   UNK d   0     -46.059  21.308   4.249  0.00  0.00    -0.011 A 
ATOM     22  C   UNK d   0     -47.025  19.639   3.104  0.00  0.00     0.066 A 
ATOM     23  C   UNK d   0     -47.488  18.659   2.239  0.00  0.00     0.062 C 
ATOM     24  C   UNK d   0     -45.932  20.590   3.170  0.00  0.00    -0.020 A 
ATOM     25  C   UNK d   0     -48.684  17.930   2.325  0.00  0.00     0.041 A 
ATOM     26  N   UNK d   0     -49.323  17.394   3.372  0.00  0.00    -0.355 N 
ATOM     27  C   UNK d   0     -49.414  17.689   1.141  0.00  0.00    -0.022 A 
ATOM     28  C   UNK d   0     -50.441  16.823   2.896  0.00  0.00     0.042 A 
ATOM     29  H   UNK d   0     -48.977  17.396   4.435  0.00  0.00     0.166 HD
ATOM     30  C   UNK d   0     -51.473  16.129   3.548  0.00  0.00     0.062 C 
ATOM     31  C   UNK d   0     -50.528  16.990   1.493  0.00  0.00    -0.013 A 
ATOM     32  C   UNK d   0     -52.060  16.420   4.769  0.00  0.00     0.066 A 
BRANCH   8  33
ATOM     33  C   UNK d   0     -54.263  16.360   7.711  0.00  0.00     0.151 C 
BRANCH  33  34
ATOM     34  C   UNK d   0     -53.632  16.084   9.014  0.00  0.00     0.143 C 
ATOM     35  O   UNK d   0     -53.991  16.686  10.036  0.00  0.00    -0.650 OA
BRANCH  34  36
ATOM     36  O   UNK d   0     -52.629  15.145   9.094  0.00  0.00    -0.776 OA
ATOM     37  H   UNK d   0     -52.316  14.773  10.001  0.00  0.00     0.167 HD
ENDBRANCH  34  36
ENDBRANCH  33  34
ENDBRANCH   8  33
BRANCH  31  38
ATOM     38  C   UNK d   0     -51.617  16.519   0.558  0.00  0.00     0.151 C 
BRANCH  38  39
ATOM     39  C   UNK d   0     -51.418  15.160   0.103  0.00  0.00     0.143 C 
ATOM     40  O   UNK d   0     -50.872  14.895  -0.982  0.00  0.00    -0.650 OA
BRANCH  39  41
ATOM     41  O   UNK d   0     -51.848  14.099   0.900  0.00  0.00    -0.776 OA
ATOM     42  H   UNK d   0     -51.331  13.937   1.770  0.00  0.00     0.167 HD
ENDBRANCH  39  41
ENDBRANCH  38  39
ENDBRANCH  31  38
BRANCH  27  43
ATOM     43  C   UNK d   0     -49.098  18.088  -0.278  0.00  0.00     0.052 C 
BRANCH  43  44
ATOM     44  C   UNK d   0     -48.167  17.142  -0.965  0.00  0.00     0.115 C 
BRANCH  44  45
ATOM     45  C   UNK d   0     -48.709  16.931  -2.332  0.00  0.00     0.139 C 
ATOM     46  O   UNK d   0     -49.670  17.648  -2.705  0.00  0.00    -0.650 OA
BRANCH  45  47
ATOM     47  O   UNK d   0     -48.199  15.991  -3.201  0.00  0.00    -0.776 OA
ATOM     48  H   UNK d   0     -47.488  15.296  -2.921  0.00  0.00     0.167 HD
ENDBRANCH  45  47
ENDBRANCH  44  45
ENDBRANCH  43  44
ENDBRANCH  27  43
BRANCH  24  49
ATOM     49  C   UNK d   0     -44.884  20.739   2.146  0.00  0.00     0.052 C 
BRANCH  49  50
ATOM     50  C   UNK d   0     -43.726  19.820   2.443  0.00  0.00     0.115 C 
BRANCH  50  51
ATOM     51  C   UNK d   0     -43.893  18.412   2.111  0.00  0.00     0.139 C 
ATOM     52  O   UNK d   0     -43.891  17.990   0.931  0.00  0.00    -0.650 OA
BRANCH  51  53
ATOM     53  O   UNK d   0     -44.065  17.484   3.127  0.00  0.00    -0.776 OA
ATOM     54  H   UNK d   0     -44.917  16.951   3.144  0.00  0.00     0.167 HD
ENDBRANCH  51  53
ENDBRANCH  50  51
ENDBRANCH  49  50
ENDBRANCH  24  49
BRANCH  21  55
ATOM     55  C   UNK d   0     -45.177  22.414   4.726  0.00  0.00     0.151 C 
BRANCH  55  56
ATOM     56  C   UNK d   0     -44.075  21.918   5.565  0.00  0.00     0.143 C 
ATOM     57  O   UNK d   0     -42.883  21.954   5.204  0.00  0.00    -0.650 OA
BRANCH  56  58
ATOM     58  O   UNK d   0     -44.398  21.388   6.813  0.00  0.00    -0.776 OA
ATOM     59  H   UNK d   0     -44.668  22.088   7.528  0.00  0.00     0.167 HD
ENDBRANCH  56  58
ENDBRANCH  55  56
ENDBRANCH  21  55
BRANCH  18  60
ATOM     60  C   UNK d   0     -47.769  20.803   9.141  0.00  0.00     0.151 C 
BRANCH  60  61
ATOM     61  C   UNK d   0     -46.901  19.638   9.368  0.00  0.00     0.143 C 
ATOM     62  O   UNK d   0     -46.938  18.859  10.321  0.00  0.00    -0.650 OA
BRANCH  61  63
ATOM     63  O   UNK d   0     -45.927  19.408   8.367  0.00  0.00    -0.776 OA
ATOM     64  H   UNK d   0     -45.334  18.598   8.396  0.00  0.00     0.167 HD
ENDBRANCH  61  63
ENDBRANCH  60  61
ENDBRANCH  18  60
BRANCH  14  65
ATOM     65  C   UNK d   0     -50.311  19.373   9.979  0.00  0.00     0.052 C 
BRANCH  65  66
ATOM     66  C   UNK d   0     -50.203  17.932  10.332  0.00  0.00     0.115 C 
BRANCH  66  67
ATOM     67  C   UNK d   0     -50.741  17.463  11.578  0.00  0.00     0.139 C 
ATOM     68  O   UNK d   0     -50.496  18.137  12.645  0.00  0.00    -0.650 OA
BRANCH  67  69
ATOM     69  O   UNK d   0     -51.522  16.329  11.797  0.00  0.00    -0.776 OA
ATOM     70  H   UNK d   0     -52.388  16.478  12.335  0.00  0.00     0.167 HD
ENDBRANCH  67  69
ENDBRANCH  66  67
ENDBRANCH  65  66
ENDBRANCH  14  65
ENDBRANCH   6   7
ENDBRANCH   5   6
ENDBRANCH   2   5
TORSDOF 28
ENDMDL
MODEL 13
REMARK VINA RESULT:      -6.6      1.818      2.290
REMARK  28 active torsions:
REMARK  status: ('A' for Active; 'I' for Inactive)
REMARK    1  A    between atoms: C_2  and  O_3 
REMARK    2  A    between atoms: C_2  and  C_4 
REMARK    3  A    between atoms: C_4  and  C_5 
REMARK    4  A    between atoms: C_5  and  C_6 
REMARK    5  A    between atoms: C_7  and  C_8 
REMARK    6  A    between atoms: C_8  and  C_9 
REMARK    7  A    between atoms: C_9  and  O_11 
REMARK    8  A    between atoms: C_28  and  C_29 
REMARK    9  A    between atoms: C_29  and  C_30 
REMARK   10  A    between atoms: C_30  and  O_32 
REMARK   11  A    between atoms: C_33  and  C_34 
REMARK   12  A    between atoms: C_34  and  C_35 
REMARK   13  A    between atoms: C_35  and  C_36 
REMARK   14  A    between atoms: C_36  and  O_38 
REMARK   15  A    between atoms: C_39  and  C_40 
REMARK   16  A    between atoms: C_40  and  C_41 
REMARK   17  A    between atoms: C_41  and  C_42 
REMARK   18  A    between atoms: C_42  and  O_44 
REMARK   19  A    between atoms: C_45  and  C_46 
REMARK   20  A    between atoms: C_46  and  C_47 
REMARK   21  A    between atoms: C_47  and  O_49 
REMARK   22  A    between atoms: C_50  and  C_51 
REMARK   23  A    between atoms: C_51  and  C_52 
REMARK   24  A    between atoms: C_52  and  O_54 
REMARK   25  A    between atoms: C_55  and  C_56 
REMARK   26  A    between atoms: C_56  and  C_57 
REMARK   27  A    between atoms: C_57  and  C_58 
REMARK   28  A    between atoms: C_58  and  O_60 
ROOT
ATOM      1  O   UNK d   0     -44.914  23.253  -0.129  0.00  0.00    -0.650 OA
ATOM      2  C   UNK d   0     -45.771  22.379  -0.393  0.00  0.00     0.139 C 
ENDROOT
BRANCH   2   3
ATOM      3  O   UNK d   0     -46.631  22.576  -1.446  0.00  0.00    -0.776 OA
ATOM      4  H   UNK d   0     -46.339  22.393  -2.408  0.00  0.00     0.167 HD
ENDBRANCH   2   3
BRANCH   2   5
ATOM      5  C   UNK d   0     -45.854  21.140   0.431  0.00  0.00     0.115 C 
BRANCH   5   6
ATOM      6  C   UNK d   0     -45.728  19.925  -0.447  0.00  0.00     0.052 C 
BRANCH   6   7
ATOM      7  C   UNK d   0     -44.308  19.678  -0.898  0.00  0.00    -0.020 A 
ATOM      8  C   UNK d   0     -43.809  19.853  -2.095  0.00  0.00    -0.011 A 
ATOM      9  C   UNK d   0     -42.406  19.476  -2.051  0.00  0.00     0.067 A 
ATOM     10  C   UNK d   0     -41.335  19.450  -2.959  0.00  0.00     0.062 C 
ATOM     11  N   UNK d   0     -42.137  19.078  -0.790  0.00  0.00    -0.248 NA
ATOM     12  C   UNK d   0     -39.975  19.317  -2.660  0.00  0.00     0.041 A 
ATOM     13  N   UNK d   0     -39.332  18.511  -1.794  0.00  0.00    -0.355 N 
ATOM     14  C   UNK d   0     -39.053  20.172  -3.291  0.00  0.00    -0.022 A 
ATOM     15  C   UNK d   0     -38.027  18.838  -1.853  0.00  0.00     0.042 A 
ATOM     16  H   UNK d   0     -39.789  17.713  -1.168  0.00  0.00     0.166 HD
ATOM     17  C   UNK d   0     -36.921  18.308  -1.160  0.00  0.00     0.062 C 
ATOM     18  C   UNK d   0     -37.814  19.876  -2.781  0.00  0.00    -0.013 A 
ATOM     19  C   UNK d   0     -36.803  18.005   0.173  0.00  0.00     0.067 A 
ATOM     20  N   UNK d   0     -37.925  18.017   0.897  0.00  0.00    -0.248 NA
ATOM     21  C   UNK d   0     -35.715  17.666   1.075  0.00  0.00    -0.011 A 
ATOM     22  C   UNK d   0     -37.650  17.711   2.207  0.00  0.00     0.066 A 
ATOM     23  C   UNK d   0     -38.736  17.650   3.068  0.00  0.00     0.062 C 
ATOM     24  C   UNK d   0     -36.217  17.499   2.265  0.00  0.00    -0.020 A 
ATOM     25  C   UNK d   0     -40.096  17.774   2.746  0.00  0.00     0.041 A 
ATOM     26  N   UNK d   0     -40.737  18.586   1.896  0.00  0.00    -0.355 N 
ATOM     27  C   UNK d   0     -41.021  16.913   3.376  0.00  0.00    -0.022 A 
ATOM     28  C   UNK d   0     -42.040  18.268   1.960  0.00  0.00     0.042 A 
ATOM     29  H   UNK d   0     -40.278  19.394   1.275  0.00  0.00     0.166 HD
ATOM     30  C   UNK d   0     -43.152  18.792   1.282  0.00  0.00     0.062 C 
ATOM     31  C   UNK d   0     -42.252  17.218   2.884  0.00  0.00    -0.013 A 
ATOM     32  C   UNK d   0     -43.240  19.177  -0.046  0.00  0.00     0.066 A 
BRANCH   8  33
ATOM     33  C   UNK d   0     -44.524  20.339  -3.290  0.00  0.00     0.151 C 
BRANCH  33  34
ATOM     34  C   UNK d   0     -43.964  21.596  -3.817  0.00  0.00     0.143 C 
ATOM     35  O   UNK d   0     -43.465  21.645  -4.950  0.00  0.00    -0.650 OA
BRANCH  34  36
ATOM     36  O   UNK d   0     -43.998  22.730  -3.038  0.00  0.00    -0.776 OA
ATOM     37  H   UNK d   0     -43.133  23.211  -2.758  0.00  0.00     0.167 HD
ENDBRANCH  34  36
ENDBRANCH  33  34
ENDBRANCH   8  33
BRANCH  31  38
ATOM     38  C   UNK d   0     -43.553  16.545   3.257  0.00  0.00     0.151 C 
BRANCH  38  39
ATOM     39  C   UNK d   0     -44.337  17.320   4.196  0.00  0.00     0.143 C 
ATOM     40  O   UNK d   0     -45.463  17.764   3.914  0.00  0.00    -0.650 OA
BRANCH  39  41
ATOM     41  O   UNK d   0     -43.823  17.584   5.465  0.00  0.00    -0.776 OA
ATOM     42  H   UNK d   0     -44.331  17.187   6.261  0.00  0.00     0.167 HD
ENDBRANCH  39  41
ENDBRANCH  38  39
ENDBRANCH  31  38
BRANCH  27  43
ATOM     43  C   UNK d   0     -40.780  15.838   4.406  0.00  0.00     0.052 C 
BRANCH  43  44
ATOM     44  C   UNK d   0     -40.110  14.624   3.848  0.00  0.00     0.115 C 
BRANCH  44  45
ATOM     45  C   UNK d   0     -40.434  13.501   4.766  0.00  0.00     0.139 C 
ATOM     46  O   UNK d   0     -40.373  12.331   4.313  0.00  0.00    -0.650 OA
BRANCH  45  47
ATOM     47  O   UNK d   0     -40.790  13.691   6.083  0.00  0.00    -0.776 OA
ATOM     48  H   UNK d   0     -40.869  12.915   6.760  0.00  0.00     0.167 HD
ENDBRANCH  45  47
ENDBRANCH  44  45
ENDBRANCH  43  44
ENDBRANCH  27  43
BRANCH  24  49
ATOM     49  C   UNK d   0     -35.472  17.107   3.474  0.00  0.00     0.052 C 
BRANCH  49  50
ATOM     50  C   UNK d   0     -35.451  15.607   3.614  0.00  0.00     0.115 C 
BRANCH  50  51
ATOM     51  C   UNK d   0     -34.148  14.957   3.612  0.00  0.00     0.139 C 
ATOM     52  O   UNK d   0     -33.072  15.599   3.613  0.00  0.00    -0.650 OA
BRANCH  51  53
ATOM     53  O   UNK d   0     -34.072  13.572   3.605  0.00  0.00    -0.776 OA
ATOM     54  H   UNK d   0     -34.788  13.054   4.082  0.00  0.00     0.167 HD
ENDBRANCH  51  53
ENDBRANCH  50  51
ENDBRANCH  49  50
ENDBRANCH  24  49
BRANCH  21  55
ATOM     55  C   UNK d   0     -34.289  17.539   0.653  0.00  0.00     0.151 C 
BRANCH  55  56
ATOM     56  C   UNK d   0     -33.923  16.146   0.356  0.00  0.00     0.143 C 
ATOM     57  O   UNK d   0     -34.729  15.324  -0.124  0.00  0.00    -0.650 OA
BRANCH  56  58
ATOM     58  O   UNK d   0     -32.616  15.746   0.628  0.00  0.00    -0.776 OA
ATOM     59  H   UNK d   0     -32.484  15.282   1.545  0.00  0.00     0.167 HD
ENDBRANCH  56  58
ENDBRANCH  55  56
ENDBRANCH  21  55
BRANCH  18  60
ATOM     60  C   UNK d   0     -36.530  20.563  -3.175  0.00  0.00     0.151 C 
BRANCH  60  61
ATOM     61  C   UNK d   0     -35.950  19.748  -4.254  0.00  0.00     0.143 C 
ATOM     62  O   UNK d   0     -36.325  18.636  -4.627  0.00  0.00    -0.650 OA
BRANCH  61  63
ATOM     63  O   UNK d   0     -34.843  20.328  -4.918  0.00  0.00    -0.776 OA
ATOM     64  H   UNK d   0     -33.938  20.362  -4.484  0.00  0.00     0.167 HD
ENDBRANCH  61  63
ENDBRANCH  60  61
ENDBRANCH  18  60
BRANCH  14  65
ATOM     65  C   UNK d   0     -39.239  21.169  -4.399  0.00  0.00     0.052 C 
BRANCH  65  66
ATOM     66  C   UNK d   0     -39.066  20.575  -5.752  0.00  0.00     0.115 C 
BRANCH  66  67
ATOM     67  C   UNK d   0     -40.093  20.744  -6.741  0.00  0.00     0.139 C 
ATOM     68  O   UNK d   0     -39.751  21.121  -7.922  0.00  0.00    -0.650 OA
BRANCH  67  69
ATOM     69  O   UNK d   0     -41.465  20.549  -6.588  0.00  0.00    -0.776 OA
ATOM     70  H   UNK d   0     -41.865  20.865  -5.693  0.00  0.00     0.167 HD
ENDBRANCH  67  69
ENDBRANCH  66  67
ENDBRANCH  65  66
ENDBRANCH  14  65
ENDBRANCH   6   7
ENDBRANCH   5   6
ENDBRANCH   2   5
TORSDOF 28
ENDMDL
MODEL 14
REMARK VINA RESULT:      -6.6      1.606      7.412
REMARK  28 active torsions:
REMARK  status: ('A' for Active; 'I' for Inactive)
REMARK    1  A    between atoms: C_2  and  O_3 
REMARK    2  A    between atoms: C_2  and  C_4 
REMARK    3  A    between atoms: C_4  and  C_5 
REMARK    4  A    between atoms: C_5  and  C_6 
REMARK    5  A    between atoms: C_7  and  C_8 
REMARK    6  A    between atoms: C_8  and  C_9 
REMARK    7  A    between atoms: C_9  and  O_11 
REMARK    8  A    between atoms: C_28  and  C_29 
REMARK    9  A    between atoms: C_29  and  C_30 
REMARK   10  A    between atoms: C_30  and  O_32 
REMARK   11  A    between atoms: C_33  and  C_34 
REMARK   12  A    between atoms: C_34  and  C_35 
REMARK   13  A    between atoms: C_35  and  C_36 
REMARK   14  A    between atoms: C_36  and  O_38 
REMARK   15  A    between atoms: C_39  and  C_40 
REMARK   16  A    between atoms: C_40  and  C_41 
REMARK   17  A    between atoms: C_41  and  C_42 
REMARK   18  A    between atoms: C_42  and  O_44 
REMARK   19  A    between atoms: C_45  and  C_46 
REMARK   20  A    between atoms: C_46  and  C_47 
REMARK   21  A    between atoms: C_47  and  O_49 
REMARK   22  A    between atoms: C_50  and  C_51 
REMARK   23  A    between atoms: C_51  and  C_52 
REMARK   24  A    between atoms: C_52  and  O_54 
REMARK   25  A    between atoms: C_55  and  C_56 
REMARK   26  A    between atoms: C_56  and  C_57 
REMARK   27  A    between atoms: C_57  and  C_58 
REMARK   28  A    between atoms: C_58  and  O_60 
ROOT
ATOM      1  O   UNK d   0     -43.478  22.228  -4.752  0.00  0.00    -0.650 OA
ATOM      2  C   UNK d   0     -44.504  21.512  -4.778  0.00  0.00     0.139 C 
ENDROOT
BRANCH   2   3
ATOM      3  O   UNK d   0     -44.844  20.866  -5.942  0.00  0.00    -0.776 OA
ATOM      4  H   UNK d   0     -45.017  19.858  -5.956  0.00  0.00     0.167 HD
ENDBRANCH   2   3
BRANCH   2   5
ATOM      5  C   UNK d   0     -45.345  21.364  -3.557  0.00  0.00     0.115 C 
BRANCH   5   6
ATOM      6  C   UNK d   0     -45.293  19.945  -3.061  0.00  0.00     0.052 C 
BRANCH   6   7
ATOM      7  C   UNK d   0     -44.436  19.792  -1.827  0.00  0.00    -0.020 A 
ATOM      8  C   UNK d   0     -44.812  19.888  -0.577  0.00  0.00    -0.011 A 
ATOM      9  C   UNK d   0     -43.642  19.674   0.258  0.00  0.00     0.067 A 
ATOM     10  C   UNK d   0     -43.375  19.626   1.635  0.00  0.00     0.062 C 
ATOM     11  N   UNK d   0     -42.595  19.460  -0.567  0.00  0.00    -0.248 NA
ATOM     12  C   UNK d   0     -42.226  19.129   2.259  0.00  0.00     0.041 A 
ATOM     13  N   UNK d   0     -40.922  19.268   1.955  0.00  0.00    -0.355 N 
ATOM     14  C   UNK d   0     -42.369  18.282   3.373  0.00  0.00    -0.022 A 
ATOM     15  C   UNK d   0     -40.234  18.526   2.843  0.00  0.00     0.042 A 
ATOM     16  H   UNK d   0     -40.494  19.894   1.141  0.00  0.00     0.166 HD
ATOM     17  C   UNK d   0     -38.847  18.318   2.980  0.00  0.00     0.062 C 
ATOM     18  C   UNK d   0     -41.108  17.892   3.748  0.00  0.00    -0.013 A 
ATOM     19  C   UNK d   0     -37.914  18.053   2.010  0.00  0.00     0.067 A 
ATOM     20  N   UNK d   0     -38.304  18.199   0.741  0.00  0.00    -0.248 NA
ATOM     21  C   UNK d   0     -36.529  17.615   1.984  0.00  0.00    -0.011 A 
ATOM     22  C   UNK d   0     -37.275  17.886  -0.113  0.00  0.00     0.066 A 
ATOM     23  C   UNK d   0     -37.532  18.031  -1.468  0.00  0.00     0.062 C 
ATOM     24  C   UNK d   0     -36.162  17.516   0.739  0.00  0.00    -0.020 A 
ATOM     25  C   UNK d   0     -38.689  18.545  -2.074  0.00  0.00     0.041 A 
ATOM     26  N   UNK d   0     -39.986  18.395  -1.781  0.00  0.00    -0.355 N 
ATOM     27  C   UNK d   0     -38.544  19.399  -3.190  0.00  0.00    -0.022 A 
ATOM     28  C   UNK d   0     -40.675  19.127  -2.671  0.00  0.00     0.042 A 
ATOM     29  H   UNK d   0     -40.415  17.756  -0.970  0.00  0.00     0.166 HD
ATOM     30  C   UNK d   0     -42.054  19.335  -2.825  0.00  0.00     0.062 C 
ATOM     31  C   UNK d   0     -39.796  19.772  -3.573  0.00  0.00    -0.013 A 
ATOM     32  C   UNK d   0     -43.007  19.517  -1.835  0.00  0.00     0.066 A 
BRANCH   8  33
ATOM     33  C   UNK d   0     -46.172  20.168  -0.081  0.00  0.00     0.151 C 
BRANCH  33  34
ATOM     34  C   UNK d   0     -46.817  18.985   0.517  0.00  0.00     0.143 C 
ATOM     35  O   UNK d   0     -46.897  18.858   1.747  0.00  0.00    -0.650 OA
BRANCH  34  36
ATOM     36  O   UNK d   0     -47.334  18.010  -0.305  0.00  0.00    -0.776 OA
ATOM     37  H   UNK d   0     -46.801  17.651  -1.109  0.00  0.00     0.167 HD
ENDBRANCH  34  36
ENDBRANCH  33  34
ENDBRANCH   8  33
BRANCH  31  38
ATOM     38  C   UNK d   0     -40.138  20.695  -4.719  0.00  0.00     0.151 C 
BRANCH  38  39
ATOM     39  C   UNK d   0     -40.044  22.094  -4.360  0.00  0.00     0.143 C 
ATOM     40  O   UNK d   0     -39.203  22.857  -4.869  0.00  0.00    -0.650 OA
BRANCH  39  41
ATOM     41  O   UNK d   0     -40.920  22.620  -3.411  0.00  0.00    -0.776 OA
ATOM     42  H   UNK d   0     -41.275  21.972  -2.701  0.00  0.00     0.167 HD
ENDBRANCH  39  41
ENDBRANCH  38  39
ENDBRANCH  31  38
BRANCH  27  43
ATOM     43  C   UNK d   0     -37.289  19.858  -3.888  0.00  0.00     0.052 C 
BRANCH  43  44
ATOM     44  C   UNK d   0     -36.632  21.021  -3.218  0.00  0.00     0.115 C 
BRANCH  44  45
ATOM     45  C   UNK d   0     -35.225  20.620  -2.957  0.00  0.00     0.139 C 
ATOM     46  O   UNK d   0     -34.876  19.453  -3.260  0.00  0.00    -0.650 OA
BRANCH  45  47
ATOM     47  O   UNK d   0     -34.295  21.475  -2.405  0.00  0.00    -0.776 OA
ATOM     48  H   UNK d   0     -34.422  21.921  -1.482  0.00  0.00     0.167 HD
ENDBRANCH  45  47
ENDBRANCH  44  45
ENDBRANCH  43  44
ENDBRANCH  27  43
BRANCH  24  49
ATOM     49  C   UNK d   0     -34.822  17.138   0.256  0.00  0.00     0.052 C 
BRANCH  49  50
ATOM     50  C   UNK d   0     -34.728  15.644   0.087  0.00  0.00     0.115 C 
BRANCH  50  51
ATOM     51  C   UNK d   0     -33.813  14.931   0.969  0.00  0.00     0.139 C 
ATOM     52  O   UNK d   0     -33.863  13.690   1.135  0.00  0.00    -0.650 OA
BRANCH  51  53
ATOM     53  O   UNK d   0     -32.844  15.636   1.666  0.00  0.00    -0.776 OA
ATOM     54  H   UNK d   0     -31.883  15.362   1.553  0.00  0.00     0.167 HD
ENDBRANCH  51  53
ENDBRANCH  50  51
ENDBRANCH  49  50
ENDBRANCH  24  49
BRANCH  21  55
ATOM     55  C   UNK d   0     -35.715  17.347   3.206  0.00  0.00     0.151 C 
BRANCH  55  56
ATOM     56  C   UNK d   0     -35.844  15.953   3.659  0.00  0.00     0.143 C 
ATOM     57  O   UNK d   0     -34.859  15.226   3.894  0.00  0.00    -0.650 OA
BRANCH  56  58
ATOM     58  O   UNK d   0     -37.130  15.442   3.828  0.00  0.00    -0.776 OA
ATOM     59  H   UNK d   0     -37.245  14.811   4.642  0.00  0.00     0.167 HD
ENDBRANCH  56  58
ENDBRANCH  55  56
ENDBRANCH  21  55
BRANCH  18  60
ATOM     60  C   UNK d   0     -40.795  16.970   4.900  0.00  0.00     0.151 C 
BRANCH  60  61
ATOM     61  C   UNK d   0     -40.639  15.630   4.314  0.00  0.00     0.143 C 
ATOM     62  O   UNK d   0     -39.687  14.862   4.458  0.00  0.00    -0.650 OA
BRANCH  61  63
ATOM     63  O   UNK d   0     -41.715  15.200   3.500  0.00  0.00    -0.776 OA
ATOM     64  H   UNK d   0     -41.557  14.867   2.565  0.00  0.00     0.167 HD
ENDBRANCH  61  63
ENDBRANCH  60  61
ENDBRANCH  18  60
BRANCH  14  65
ATOM     65  C   UNK d   0     -43.588  17.897   4.162  0.00  0.00     0.052 C 
BRANCH  65  66
ATOM     66  C   UNK d   0     -43.986  18.928   5.159  0.00  0.00     0.115 C 
BRANCH  66  67
ATOM     67  C   UNK d   0     -45.266  19.568   5.048  0.00  0.00     0.139 C 
ATOM     68  O   UNK d   0     -45.358  20.813   5.358  0.00  0.00    -0.650 OA
BRANCH  67  69
ATOM     69  O   UNK d   0     -46.471  19.001   4.635  0.00  0.00    -0.776 OA
ATOM     70  H   UNK d   0     -46.484  17.973   4.572  0.00  0.00     0.167 HD
ENDBRANCH  67  69
ENDBRANCH  66  67
ENDBRANCH  65  66
ENDBRANCH  14  65
ENDBRANCH   6   7
ENDBRANCH   5   6
ENDBRANCH   2   5
TORSDOF 28
ENDMDL
MODEL 15
REMARK VINA RESULT:      -6.5      2.117      8.423
REMARK  28 active torsions:
REMARK  status: ('A' for Active; 'I' for Inactive)
REMARK    1  A    between atoms: C_2  and  O_3 
REMARK    2  A    between atoms: C_2  and  C_4 
REMARK    3  A    between atoms: C_4  and  C_5 
REMARK    4  A    between atoms: C_5  and  C_6 
REMARK    5  A    between atoms: C_7  and  C_8 
REMARK    6  A    between atoms: C_8  and  C_9 
REMARK    7  A    between atoms: C_9  and  O_11 
REMARK    8  A    between atoms: C_28  and  C_29 
REMARK    9  A    between atoms: C_29  and  C_30 
REMARK   10  A    between atoms: C_30  and  O_32 
REMARK   11  A    between atoms: C_33  and  C_34 
REMARK   12  A    between atoms: C_34  and  C_35 
REMARK   13  A    between atoms: C_35  and  C_36 
REMARK   14  A    between atoms: C_36  and  O_38 
REMARK   15  A    between atoms: C_39  and  C_40 
REMARK   16  A    between atoms: C_40  and  C_41 
REMARK   17  A    between atoms: C_41  and  C_42 
REMARK   18  A    between atoms: C_42  and  O_44 
REMARK   19  A    between atoms: C_45  and  C_46 
REMARK   20  A    between atoms: C_46  and  C_47 
REMARK   21  A    between atoms: C_47  and  O_49 
REMARK   22  A    between atoms: C_50  and  C_51 
REMARK   23  A    between atoms: C_51  and  C_52 
REMARK   24  A    between atoms: C_52  and  O_54 
REMARK   25  A    between atoms: C_55  and  C_56 
REMARK   26  A    between atoms: C_56  and  C_57 
REMARK   27  A    between atoms: C_57  and  C_58 
REMARK   28  A    between atoms: C_58  and  O_60 
ROOT
ATOM      1  O   UNK d   0     -33.299  17.089   3.914  0.00  0.00    -0.650 OA
ATOM      2  C   UNK d   0     -33.450  16.255   2.993  0.00  0.00     0.139 C 
ENDROOT
BRANCH   2   3
ATOM      3  O   UNK d   0     -32.449  15.350   2.735  0.00  0.00    -0.776 OA
ATOM      4  H   UNK d   0     -32.275  14.562   3.363  0.00  0.00     0.167 HD
ENDBRANCH   2   3
BRANCH   2   5
ATOM      5  C   UNK d   0     -34.704  16.249   2.188  0.00  0.00     0.115 C 
BRANCH   5   6
ATOM      6  C   UNK d   0     -35.765  17.064   2.875  0.00  0.00     0.052 C 
BRANCH   6   7
ATOM      7  C   UNK d   0     -36.445  18.038   1.943  0.00  0.00    -0.020 A 
ATOM      8  C   UNK d   0     -35.885  18.976   1.223  0.00  0.00    -0.011 A 
ATOM      9  C   UNK d   0     -36.937  19.664   0.493  0.00  0.00     0.067 A 
ATOM     10  C   UNK d   0     -37.005  20.714  -0.436  0.00  0.00     0.062 C 
ATOM     11  N   UNK d   0     -38.106  19.082   0.832  0.00  0.00    -0.248 NA
ATOM     12  C   UNK d   0     -38.091  21.059  -1.248  0.00  0.00     0.041 A 
ATOM     13  N   UNK d   0     -39.408  21.137  -0.979  0.00  0.00    -0.355 N 
ATOM     14  C   UNK d   0     -37.864  21.333  -2.609  0.00  0.00    -0.022 A 
ATOM     15  C   UNK d   0     -40.023  21.447  -2.136  0.00  0.00     0.042 A 
ATOM     16  H   UNK d   0     -39.892  20.996   0.013  0.00  0.00     0.166 HD
ATOM     17  C   UNK d   0     -41.389  21.650  -2.419  0.00  0.00     0.062 C 
ATOM     18  C   UNK d   0     -39.088  21.578  -3.180  0.00  0.00    -0.013 A 
ATOM     19  C   UNK d   0     -42.472  20.908  -2.021  0.00  0.00     0.067 A 
ATOM     20  N   UNK d   0     -42.258  19.981  -1.084  0.00  0.00    -0.248 NA
ATOM     21  C   UNK d   0     -43.880  20.841  -2.375  0.00  0.00    -0.011 A 
ATOM     22  C   UNK d   0     -43.423  19.312  -0.801  0.00  0.00     0.066 A 
ATOM     23  C   UNK d   0     -43.352  18.342   0.188  0.00  0.00     0.062 C 
ATOM     24  C   UNK d   0     -44.430  19.903  -1.661  0.00  0.00    -0.020 A 
ATOM     25  C   UNK d   0     -42.254  18.020   1.001  0.00  0.00     0.041 A 
ATOM     26  N   UNK d   0     -40.947  17.927   0.730  0.00  0.00    -0.355 N 
ATOM     27  C   UNK d   0     -42.483  17.748   2.367  0.00  0.00    -0.022 A 
ATOM     28  C   UNK d   0     -40.332  17.609   1.881  0.00  0.00     0.042 A 
ATOM     29  H   UNK d   0     -40.464  18.059  -0.269  0.00  0.00     0.166 HD
ATOM     30  C   UNK d   0     -38.976  17.395   2.174  0.00  0.00     0.062 C 
ATOM     31  C   UNK d   0     -41.272  17.488   2.932  0.00  0.00    -0.013 A 
ATOM     32  C   UNK d   0     -37.878  18.097   1.701  0.00  0.00     0.066 A 
BRANCH   8  33
ATOM     33  C   UNK d   0     -34.448  19.300   1.153  0.00  0.00     0.151 C 
BRANCH  33  34
ATOM     34  C   UNK d   0     -34.002  20.158   2.266  0.00  0.00     0.143 C 
ATOM     35  O   UNK d   0     -34.656  21.155   2.603  0.00  0.00    -0.650 OA
BRANCH  34  36
ATOM     36  O   UNK d   0     -32.843  19.845   2.937  0.00  0.00    -0.776 OA
ATOM     37  H   UNK d   0     -32.589  20.318   3.815  0.00  0.00     0.167 HD
ENDBRANCH  34  36
ENDBRANCH  33  34
ENDBRANCH   8  33
BRANCH  31  38
ATOM     38  C   UNK d   0     -41.018  17.158   4.384  0.00  0.00     0.151 C 
BRANCH  38  39
ATOM     39  C   UNK d   0     -40.782  18.333   5.195  0.00  0.00     0.143 C 
ATOM     40  O   UNK d   0     -41.575  18.702   6.079  0.00  0.00    -0.650 OA
BRANCH  39  41
ATOM     41  O   UNK d   0     -39.629  19.089   4.989  0.00  0.00    -0.776 OA
ATOM     42  H   UNK d   0     -38.828  18.883   5.594  0.00  0.00     0.167 HD
ENDBRANCH  39  41
ENDBRANCH  38  39
ENDBRANCH  31  38
BRANCH  27  43
ATOM     43  C   UNK d   0     -43.780  17.726   3.136  0.00  0.00     0.052 C 
BRANCH  43  44
ATOM     44  C   UNK d   0     -44.162  19.061   3.689  0.00  0.00     0.115 C 
BRANCH  44  45
ATOM     45  C   UNK d   0     -44.617  18.828   5.085  0.00  0.00     0.139 C 
ATOM     46  O   UNK d   0     -45.174  19.776   5.692  0.00  0.00    -0.650 OA
BRANCH  45  47
ATOM     47  O   UNK d   0     -44.458  17.621   5.731  0.00  0.00    -0.776 OA
ATOM     48  H   UNK d   0     -45.087  16.816   5.578  0.00  0.00     0.167 HD
ENDBRANCH  45  47
ENDBRANCH  44  45
ENDBRANCH  43  44
ENDBRANCH  27  43
BRANCH  24  49
ATOM     49  C   UNK d   0     -45.853  19.523  -1.673  0.00  0.00     0.052 C 
BRANCH  49  50
ATOM     50  C   UNK d   0     -46.017  18.119  -2.196  0.00  0.00     0.115 C 
BRANCH  50  51
ATOM     51  C   UNK d   0     -47.206  17.389  -1.778  0.00  0.00     0.139 C 
ATOM     52  O   UNK d   0     -47.643  17.423  -0.604  0.00  0.00    -0.650 OA
BRANCH  51  53
ATOM     53  O   UNK d   0     -47.896  16.616  -2.700  0.00  0.00    -0.776 OA
ATOM     54  H   UNK d   0     -48.892  16.729  -2.764  0.00  0.00     0.167 HD
ENDBRANCH  51  53
ENDBRANCH  50  51
ENDBRANCH  49  50
ENDBRANCH  24  49
BRANCH  21  55
ATOM     55  C   UNK d   0     -44.529  21.726  -3.387  0.00  0.00     0.151 C 
BRANCH  55  56
ATOM     56  C   UNK d   0     -44.422  21.178  -4.748  0.00  0.00     0.143 C 
ATOM     57  O   UNK d   0     -43.369  21.224  -5.414  0.00  0.00    -0.650 OA
BRANCH  56  58
ATOM     58  O   UNK d   0     -45.557  20.585  -5.300  0.00  0.00    -0.776 OA
ATOM     59  H   UNK d   0     -45.462  19.575  -5.512  0.00  0.00     0.167 HD
ENDBRANCH  56  58
ENDBRANCH  55  56
ENDBRANCH  21  55
BRANCH  18  60
ATOM     60  C   UNK d   0     -39.311  21.909  -4.635  0.00  0.00     0.151 C 
BRANCH  60  61
ATOM     61  C   UNK d   0     -39.407  20.618  -5.333  0.00  0.00     0.143 C 
ATOM     62  O   UNK d   0     -38.485  19.981  -5.845  0.00  0.00    -0.650 OA
BRANCH  61  63
ATOM     63  O   UNK d   0     -40.710  20.070  -5.411  0.00  0.00    -0.776 OA
ATOM     64  H   UNK d   0     -40.867  19.163  -5.812  0.00  0.00     0.167 HD
ENDBRANCH  61  63
ENDBRANCH  60  61
ENDBRANCH  18  60
BRANCH  14  65
ATOM     65  C   UNK d   0     -36.583  21.478  -3.379  0.00  0.00     0.052 C 
BRANCH  65  66
ATOM     66  C   UNK d   0     -35.550  20.483  -2.982  0.00  0.00     0.115 C 
BRANCH  66  67
ATOM     67  C   UNK d   0     -35.694  19.111  -3.379  0.00  0.00     0.139 C 
ATOM     68  O   UNK d   0     -34.992  18.220  -2.773  0.00  0.00    -0.650 OA
BRANCH  67  69
ATOM     69  O   UNK d   0     -36.524  18.592  -4.372  0.00  0.00    -0.776 OA
ATOM     70  H   UNK d   0     -37.372  18.110  -4.040  0.00  0.00     0.167 HD
ENDBRANCH  67  69
ENDBRANCH  66  67
ENDBRANCH  65  66
ENDBRANCH  14  65
ENDBRANCH   6   7
ENDBRANCH   5   6
ENDBRANCH   2   5
TORSDOF 28
ENDMDL
MODEL 16
REMARK VINA RESULT:      -6.5      2.257      8.483
REMARK  28 active torsions:
REMARK  status: ('A' for Active; 'I' for Inactive)
REMARK    1  A    between atoms: C_2  and  O_3 
REMARK    2  A    between atoms: C_2  and  C_4 
REMARK    3  A    between atoms: C_4  and  C_5 
REMARK    4  A    between atoms: C_5  and  C_6 
REMARK    5  A    between atoms: C_7  and  C_8 
REMARK    6  A    between atoms: C_8  and  C_9 
REMARK    7  A    between atoms: C_9  and  O_11 
REMARK    8  A    between atoms: C_28  and  C_29 
REMARK    9  A    between atoms: C_29  and  C_30 
REMARK   10  A    between atoms: C_30  and  O_32 
REMARK   11  A    between atoms: C_33  and  C_34 
REMARK   12  A    between atoms: C_34  and  C_35 
REMARK   13  A    between atoms: C_35  and  C_36 
REMARK   14  A    between atoms: C_36  and  O_38 
REMARK   15  A    between atoms: C_39  and  C_40 
REMARK   16  A    between atoms: C_40  and  C_41 
REMARK   17  A    between atoms: C_41  and  C_42 
REMARK   18  A    between atoms: C_42  and  O_44 
REMARK   19  A    between atoms: C_45  and  C_46 
REMARK   20  A    between atoms: C_46  and  C_47 
REMARK   21  A    between atoms: C_47  and  O_49 
REMARK   22  A    between atoms: C_50  and  C_51 
REMARK   23  A    between atoms: C_51  and  C_52 
REMARK   24  A    between atoms: C_52  and  O_54 
REMARK   25  A    between atoms: C_55  and  C_56 
REMARK   26  A    between atoms: C_56  and  C_57 
REMARK   27  A    between atoms: C_57  and  C_58 
REMARK   28  A    between atoms: C_58  and  O_60 
ROOT
ATOM      1  O   UNK d   0     -35.188  18.895   0.739  0.00  0.00    -0.650 OA
ATOM      2  C   UNK d   0     -34.301  18.476  -0.038  0.00  0.00     0.139 C 
ENDROOT
BRANCH   2   3
ATOM      3  O   UNK d   0     -33.565  17.370   0.314  0.00  0.00    -0.776 OA
ATOM      4  H   UNK d   0     -33.750  16.868   1.185  0.00  0.00     0.167 HD
ENDBRANCH   2   3
BRANCH   2   5
ATOM      5  C   UNK d   0     -34.049  19.173  -1.331  0.00  0.00     0.115 C 
BRANCH   5   6
ATOM      6  C   UNK d   0     -34.765  18.465  -2.449  0.00  0.00     0.052 C 
BRANCH   6   7
ATOM      7  C   UNK d   0     -35.991  19.212  -2.917  0.00  0.00    -0.020 A 
ATOM      8  C   UNK d   0     -36.058  20.138  -3.839  0.00  0.00    -0.011 A 
ATOM      9  C   UNK d   0     -37.443  20.569  -3.938  0.00  0.00     0.067 A 
ATOM     10  C   UNK d   0     -38.166  21.484  -4.718  0.00  0.00     0.062 C 
ATOM     11  N   UNK d   0     -38.149  19.856  -3.035  0.00  0.00    -0.248 NA
ATOM     12  C   UNK d   0     -39.555  21.563  -4.863  0.00  0.00     0.041 A 
ATOM     13  N   UNK d   0     -40.547  21.468  -3.957  0.00  0.00    -0.355 N 
ATOM     14  C   UNK d   0     -40.098  21.715  -6.152  0.00  0.00    -0.022 A 
ATOM     15  C   UNK d   0     -41.706  21.547  -4.639  0.00  0.00     0.042 A 
ATOM     16  H   UNK d   0     -40.431  21.367  -2.856  0.00  0.00     0.166 HD
ATOM     17  C   UNK d   0     -43.038  21.504  -4.184  0.00  0.00     0.062 C 
ATOM     18  C   UNK d   0     -41.464  21.702  -6.018  0.00  0.00    -0.013 A 
ATOM     19  C   UNK d   0     -43.612  20.653  -3.274  0.00  0.00     0.067 A 
ATOM     20  N   UNK d   0     -42.785  19.882  -2.563  0.00  0.00    -0.248 NA
ATOM     21  C   UNK d   0     -44.965  20.331  -2.853  0.00  0.00    -0.011 A 
ATOM     22  C   UNK d   0     -43.500  19.077  -1.709  0.00  0.00     0.066 A 
ATOM     23  C   UNK d   0     -42.760  18.247  -0.880  0.00  0.00     0.062 C 
ATOM     24  C   UNK d   0     -44.893  19.405  -1.941  0.00  0.00    -0.020 A 
ATOM     25  C   UNK d   0     -41.364  18.192  -0.741  0.00  0.00     0.041 A 
ATOM     26  N   UNK d   0     -40.379  18.272  -1.643  0.00  0.00    -0.355 N 
ATOM     27  C   UNK d   0     -40.820  18.045   0.553  0.00  0.00    -0.022 A 
ATOM     28  C   UNK d   0     -39.223  18.185  -0.966  0.00  0.00     0.042 A 
ATOM     29  H   UNK d   0     -40.497  18.363  -2.751  0.00  0.00     0.166 HD
ATOM     30  C   UNK d   0     -37.890  18.217  -1.407  0.00  0.00     0.062 C 
ATOM     31  C   UNK d   0     -39.466  18.040   0.420  0.00  0.00    -0.013 A 
ATOM     32  C   UNK d   0     -37.334  19.021  -2.389  0.00  0.00     0.066 A 
BRANCH   8  33
ATOM     33  C   UNK d   0     -34.942  20.670  -4.643  0.00  0.00     0.151 C 
BRANCH  33  34
ATOM     34  C   UNK d   0     -34.319  21.860  -4.036  0.00  0.00     0.143 C 
ATOM     35  O   UNK d   0     -33.196  21.795  -3.516  0.00  0.00    -0.650 OA
BRANCH  34  36
ATOM     36  O   UNK d   0     -34.996  23.057  -4.048  0.00  0.00    -0.776 OA
ATOM     37  H   UNK d   0     -34.503  23.951  -3.920  0.00  0.00     0.167 HD
ENDBRANCH  34  36
ENDBRANCH  33  34
ENDBRANCH   8  33
BRANCH  31  38
ATOM     38  C   UNK d   0     -38.460  17.918   1.542  0.00  0.00     0.151 C 
BRANCH  38  39
ATOM     39  C   UNK d   0     -38.274  19.158   2.266  0.00  0.00     0.143 C 
ATOM     40  O   UNK d   0     -38.661  19.308   3.438  0.00  0.00    -0.650 OA
BRANCH  39  41
ATOM     41  O   UNK d   0     -37.640  20.230   1.639  0.00  0.00    -0.776 OA
ATOM     42  H   UNK d   0     -37.075  20.844   2.234  0.00  0.00     0.167 HD
ENDBRANCH  39  41
ENDBRANCH  38  39
ENDBRANCH  31  38
BRANCH  27  43
ATOM     43  C   UNK d   0     -41.526  17.910   1.880  0.00  0.00     0.052 C 
BRANCH  43  44
ATOM     44  C   UNK d   0     -41.875  16.498   2.222  0.00  0.00     0.115 C 
BRANCH  44  45
ATOM     45  C   UNK d   0     -41.045  16.128   3.398  0.00  0.00     0.139 C 
ATOM     46  O   UNK d   0     -40.813  14.911   3.599  0.00  0.00    -0.650 OA
BRANCH  45  47
ATOM     47  O   UNK d   0     -40.521  17.062   4.266  0.00  0.00    -0.776 OA
ATOM     48  H   UNK d   0     -39.705  17.650   4.030  0.00  0.00     0.167 HD
ENDBRANCH  45  47
ENDBRANCH  44  45
ENDBRANCH  43  44
ENDBRANCH  27  43
BRANCH  24  49
ATOM     49  C   UNK d   0     -46.028  18.812  -1.213  0.00  0.00     0.052 C 
BRANCH  49  50
ATOM     50  C   UNK d   0     -46.601  17.655  -1.990  0.00  0.00     0.115 C 
BRANCH  50  51
ATOM     51  C   UNK d   0     -48.050  17.499  -1.980  0.00  0.00     0.139 C 
ATOM     52  O   UNK d   0     -48.639  16.700  -1.214  0.00  0.00    -0.650 OA
BRANCH  51  53
ATOM     53  O   UNK d   0     -48.827  18.253  -2.846  0.00  0.00    -0.776 OA
ATOM     54  H   UNK d   0     -49.128  19.163  -2.544  0.00  0.00     0.167 HD
ENDBRANCH  51  53
ENDBRANCH  50  51
ENDBRANCH  49  50
ENDBRANCH  24  49
BRANCH  21  55
ATOM     55  C   UNK d   0     -46.189  20.985  -3.404  0.00  0.00     0.151 C 
BRANCH  55  56
ATOM     56  C   UNK d   0     -46.591  20.404  -4.694  0.00  0.00     0.143 C 
ATOM     57  O   UNK d   0     -47.557  19.625  -4.811  0.00  0.00    -0.650 OA
BRANCH  56  58
ATOM     58  O   UNK d   0     -45.850  20.751  -5.822  0.00  0.00    -0.776 OA
ATOM     59  H   UNK d   0     -46.048  21.695  -6.200  0.00  0.00     0.167 HD
ENDBRANCH  56  58
ENDBRANCH  55  56
ENDBRANCH  21  55
BRANCH  18  60
ATOM     60  C   UNK d   0     -42.445  21.828  -7.157  0.00  0.00     0.151 C 
BRANCH  60  61
ATOM     61  C   UNK d   0     -42.588  23.270  -7.409  0.00  0.00     0.143 C 
ATOM     62  O   UNK d   0     -42.897  24.139  -6.592  0.00  0.00    -0.650 OA
BRANCH  61  63
ATOM     63  O   UNK d   0     -42.338  23.677  -8.741  0.00  0.00    -0.776 OA
ATOM     64  H   UNK d   0     -41.414  23.936  -9.039  0.00  0.00     0.167 HD
ENDBRANCH  61  63
ENDBRANCH  60  61
ENDBRANCH  18  60
BRANCH  14  65
ATOM     65  C   UNK d   0     -39.431  21.967  -7.474  0.00  0.00     0.052 C 
BRANCH  65  66
ATOM     66  C   UNK d   0     -39.595  20.841  -8.432  0.00  0.00     0.115 C 
BRANCH  66  67
ATOM     67  C   UNK d   0     -39.807  21.118  -9.825  0.00  0.00     0.139 C 
ATOM     68  O   UNK d   0     -39.206  20.386 -10.695  0.00  0.00    -0.650 OA
BRANCH  67  69
ATOM     69  O   UNK d   0     -40.608  22.113 -10.385  0.00  0.00    -0.776 OA
ATOM     70  H   UNK d   0     -41.535  22.237  -9.954  0.00  0.00     0.167 HD
ENDBRANCH  67  69
ENDBRANCH  66  67
ENDBRANCH  65  66
ENDBRANCH  14  65
ENDBRANCH   6   7
ENDBRANCH   5   6
ENDBRANCH   2   5
TORSDOF 28
ENDMDL
MODEL 17
REMARK VINA RESULT:      -6.5      1.798      7.506
REMARK  28 active torsions:
REMARK  status: ('A' for Active; 'I' for Inactive)
REMARK    1  A    between atoms: C_2  and  O_3 
REMARK    2  A    between atoms: C_2  and  C_4 
REMARK    3  A    between atoms: C_4  and  C_5 
REMARK    4  A    between atoms: C_5  and  C_6 
REMARK    5  A    between atoms: C_7  and  C_8 
REMARK    6  A    between atoms: C_8  and  C_9 
REMARK    7  A    between atoms: C_9  and  O_11 
REMARK    8  A    between atoms: C_28  and  C_29 
REMARK    9  A    between atoms: C_29  and  C_30 
REMARK   10  A    between atoms: C_30  and  O_32 
REMARK   11  A    between atoms: C_33  and  C_34 
REMARK   12  A    between atoms: C_34  and  C_35 
REMARK   13  A    between atoms: C_35  and  C_36 
REMARK   14  A    between atoms: C_36  and  O_38 
REMARK   15  A    between atoms: C_39  and  C_40 
REMARK   16  A    between atoms: C_40  and  C_41 
REMARK   17  A    between atoms: C_41  and  C_42 
REMARK   18  A    between atoms: C_42  and  O_44 
REMARK   19  A    between atoms: C_45  and  C_46 
REMARK   20  A    between atoms: C_46  and  C_47 
REMARK   21  A    between atoms: C_47  and  O_49 
REMARK   22  A    between atoms: C_50  and  C_51 
REMARK   23  A    between atoms: C_51  and  C_52 
REMARK   24  A    between atoms: C_52  and  O_54 
REMARK   25  A    between atoms: C_55  and  C_56 
REMARK   26  A    between atoms: C_56  and  C_57 
REMARK   27  A    between atoms: C_57  and  C_58 
REMARK   28  A    between atoms: C_58  and  O_60 
ROOT
ATOM      1  O   UNK d   0     -41.448  19.341   7.120  0.00  0.00    -0.650 OA
ATOM      2  C   UNK d   0     -41.211  18.307   6.457  0.00  0.00     0.139 C 
ENDROOT
BRANCH   2   3
ATOM      3  O   UNK d   0     -41.871  17.143   6.767  0.00  0.00    -0.776 OA
ATOM      4  H   UNK d   0     -42.599  17.123   7.484  0.00  0.00     0.167 HD
ENDBRANCH   2   3
BRANCH   2   5
ATOM      5  C   UNK d   0     -40.221  18.343   5.343  0.00  0.00     0.115 C 
BRANCH   5   6
ATOM      6  C   UNK d   0     -40.372  17.122   4.477  0.00  0.00     0.052 C 
BRANCH   6   7
ATOM      7  C   UNK d   0     -40.802  17.457   3.069  0.00  0.00    -0.020 A 
ATOM      8  C   UNK d   0     -42.013  17.423   2.575  0.00  0.00    -0.011 A 
ATOM      9  C   UNK d   0     -41.935  17.818   1.178  0.00  0.00     0.067 A 
ATOM     10  C   UNK d   0     -42.844  18.001   0.125  0.00  0.00     0.062 C 
ATOM     11  N   UNK d   0     -40.637  18.070   0.905  0.00  0.00    -0.248 NA
ATOM     12  C   UNK d   0     -42.615  18.660  -1.088  0.00  0.00     0.041 A 
ATOM     13  N   UNK d   0     -41.564  18.628  -1.928  0.00  0.00    -0.355 N 
ATOM     14  C   UNK d   0     -43.576  19.573  -1.558  0.00  0.00    -0.022 A 
ATOM     15  C   UNK d   0     -41.829  19.504  -2.916  0.00  0.00     0.042 A 
ATOM     16  H   UNK d   0     -40.661  17.985  -1.836  0.00  0.00     0.166 HD
ATOM     17  C   UNK d   0     -41.071  19.860  -4.049  0.00  0.00     0.062 C 
ATOM     18  C   UNK d   0     -43.082  20.116  -2.718  0.00  0.00    -0.013 A 
ATOM     19  C   UNK d   0     -39.731  20.139  -4.137  0.00  0.00     0.067 A 
ATOM     20  N   UNK d   0     -38.982  19.855  -3.068  0.00  0.00    -0.248 NA
ATOM     21  C   UNK d   0     -38.846  20.710  -5.139  0.00  0.00    -0.011 A 
ATOM     22  C   UNK d   0     -37.673  20.200  -3.298  0.00  0.00     0.066 A 
ATOM     23  C   UNK d   0     -36.775  19.923  -2.278  0.00  0.00     0.062 C 
ATOM     24  C   UNK d   0     -37.644  20.747  -4.640  0.00  0.00    -0.020 A 
ATOM     25  C   UNK d   0     -37.023  19.250  -1.072  0.00  0.00     0.041 A 
ATOM     26  N   UNK d   0     -38.061  19.292  -0.229  0.00  0.00    -0.355 N 
ATOM     27  C   UNK d   0     -36.060  18.330  -0.602  0.00  0.00    -0.022 A 
ATOM     28  C   UNK d   0     -37.795  18.426   0.762  0.00  0.00     0.042 A 
ATOM     29  H   UNK d   0     -38.963  19.947  -0.317  0.00  0.00     0.166 HD
ATOM     30  C   UNK d   0     -38.536  18.069   1.900  0.00  0.00     0.062 C 
ATOM     31  C   UNK d   0     -36.541  17.804   0.557  0.00  0.00    -0.013 A 
ATOM     32  C   UNK d   0     -39.904  17.872   2.002  0.00  0.00     0.066 A 
BRANCH   8  33
ATOM     33  C   UNK d   0     -43.249  17.048   3.286  0.00  0.00     0.151 C 
BRANCH  33  34
ATOM     34  C   UNK d   0     -43.823  18.163   4.059  0.00  0.00     0.143 C 
ATOM     35  O   UNK d   0     -44.342  17.969   5.168  0.00  0.00    -0.650 OA
BRANCH  34  36
ATOM     36  O   UNK d   0     -43.783  19.437   3.539  0.00  0.00    -0.776 OA
ATOM     37  H   UNK d   0     -42.979  20.057   3.708  0.00  0.00     0.167 HD
ENDBRANCH  34  36
ENDBRANCH  33  34
ENDBRANCH   8  33
BRANCH  31  38
ATOM     38  C   UNK d   0     -35.859  16.762   1.414  0.00  0.00     0.151 C 
BRANCH  38  39
ATOM     39  C   UNK d   0     -35.129  17.339   2.523  0.00  0.00     0.143 C 
ATOM     40  O   UNK d   0     -35.432  17.114   3.708  0.00  0.00    -0.650 OA
BRANCH  39  41
ATOM     41  O   UNK d   0     -34.043  18.176   2.268  0.00  0.00    -0.776 OA
ATOM     42  H   UNK d   0     -33.834  18.375   1.285  0.00  0.00     0.167 HD
ENDBRANCH  39  41
ENDBRANCH  38  39
ENDBRANCH  31  38
BRANCH  27  43
ATOM     43  C   UNK d   0     -34.731  17.944  -1.202  0.00  0.00     0.052 C 
BRANCH  43  44
ATOM     44  C   UNK d   0     -33.807  19.104  -1.386  0.00  0.00     0.115 C 
BRANCH  44  45
ATOM     45  C   UNK d   0     -33.657  19.298  -2.852  0.00  0.00     0.139 C 
ATOM     46  O   UNK d   0     -33.559  20.473  -3.287  0.00  0.00    -0.650 OA
BRANCH  45  47
ATOM     47  O   UNK d   0     -33.616  18.249  -3.744  0.00  0.00    -0.776 OA
ATOM     48  H   UNK d   0     -34.467  17.821  -4.145  0.00  0.00     0.167 HD
ENDBRANCH  45  47
ENDBRANCH  44  45
ENDBRANCH  43  44
ENDBRANCH  27  43
BRANCH  24  49
ATOM     49  C   UNK d   0     -36.431  21.217  -5.331  0.00  0.00     0.052 C 
BRANCH  49  50
ATOM     50  C   UNK d   0     -36.368  22.723  -5.313  0.00  0.00     0.115 C 
BRANCH  50  51
ATOM     51  C   UNK d   0     -36.436  23.376  -4.013  0.00  0.00     0.139 C 
ATOM     52  O   UNK d   0     -35.517  23.292  -3.164  0.00  0.00    -0.650 OA
BRANCH  51  53
ATOM     53  O   UNK d   0     -37.555  24.124  -3.679  0.00  0.00    -0.776 OA
ATOM     54  H   UNK d   0     -37.422  24.965  -3.145  0.00  0.00     0.167 HD
ENDBRANCH  51  53
ENDBRANCH  50  51
ENDBRANCH  49  50
ENDBRANCH  24  49
BRANCH  21  55
ATOM     55  C   UNK d   0     -39.294  21.155  -6.492  0.00  0.00     0.151 C 
BRANCH  55  56
ATOM     56  C   UNK d   0     -40.050  22.415  -6.436  0.00  0.00     0.143 C 
ATOM     57  O   UNK d   0     -40.890  22.737  -7.299  0.00  0.00    -0.650 OA
BRANCH  56  58
ATOM     58  O   UNK d   0     -39.805  23.272  -5.364  0.00  0.00    -0.776 OA
ATOM     59  H   UNK d   0     -39.007  23.919  -5.498  0.00  0.00     0.167 HD
ENDBRANCH  56  58
ENDBRANCH  55  56
ENDBRANCH  21  55
BRANCH  18  60
ATOM     60  C   UNK d   0     -43.787  21.154  -3.556  0.00  0.00     0.151 C 
BRANCH  60  61
ATOM     61  C   UNK d   0     -43.165  22.441  -3.213  0.00  0.00     0.143 C 
ATOM     62  O   UNK d   0     -42.394  23.102  -3.909  0.00  0.00    -0.650 OA
BRANCH  61  63
ATOM     63  O   UNK d   0     -43.506  22.955  -1.939  0.00  0.00    -0.776 OA
ATOM     64  H   UNK d   0     -42.802  23.311  -1.317  0.00  0.00     0.167 HD
ENDBRANCH  61  63
ENDBRANCH  60  61
ENDBRANCH  18  60
BRANCH  14  65
ATOM     65  C   UNK d   0     -44.953  19.896  -1.053  0.00  0.00     0.052 C 
BRANCH  65  66
ATOM     66  C   UNK d   0     -45.909  18.766  -1.208  0.00  0.00     0.115 C 
BRANCH  66  67
ATOM     67  C   UNK d   0     -46.366  18.394  -2.517  0.00  0.00     0.139 C 
ATOM     68  O   UNK d   0     -46.503  17.145  -2.787  0.00  0.00    -0.650 OA
BRANCH  67  69
ATOM     69  O   UNK d   0     -46.693  19.238  -3.578  0.00  0.00    -0.776 OA
ATOM     70  H   UNK d   0     -45.903  19.558  -4.156  0.00  0.00     0.167 HD
ENDBRANCH  67  69
ENDBRANCH  66  67
ENDBRANCH  65  66
ENDBRANCH  14  65
ENDBRANCH   6   7
ENDBRANCH   5   6
ENDBRANCH   2   5
TORSDOF 28
ENDMDL
MODEL 18
REMARK VINA RESULT:      -6.4      1.768     10.097
REMARK  28 active torsions:
REMARK  status: ('A' for Active; 'I' for Inactive)
REMARK    1  A    between atoms: C_2  and  O_3 
REMARK    2  A    between atoms: C_2  and  C_4 
REMARK    3  A    between atoms: C_4  and  C_5 
REMARK    4  A    between atoms: C_5  and  C_6 
REMARK    5  A    between atoms: C_7  and  C_8 
REMARK    6  A    between atoms: C_8  and  C_9 
REMARK    7  A    between atoms: C_9  and  O_11 
REMARK    8  A    between atoms: C_28  and  C_29 
REMARK    9  A    between atoms: C_29  and  C_30 
REMARK   10  A    between atoms: C_30  and  O_32 
REMARK   11  A    between atoms: C_33  and  C_34 
REMARK   12  A    between atoms: C_34  and  C_35 
REMARK   13  A    between atoms: C_35  and  C_36 
REMARK   14  A    between atoms: C_36  and  O_38 
REMARK   15  A    between atoms: C_39  and  C_40 
REMARK   16  A    between atoms: C_40  and  C_41 
REMARK   17  A    between atoms: C_41  and  C_42 
REMARK   18  A    between atoms: C_42  and  O_44 
REMARK   19  A    between atoms: C_45  and  C_46 
REMARK   20  A    between atoms: C_46  and  C_47 
REMARK   21  A    between atoms: C_47  and  O_49 
REMARK   22  A    between atoms: C_50  and  C_51 
REMARK   23  A    between atoms: C_51  and  C_52 
REMARK   24  A    between atoms: C_52  and  O_54 
REMARK   25  A    between atoms: C_55  and  C_56 
REMARK   26  A    between atoms: C_56  and  C_57 
REMARK   27  A    between atoms: C_57  and  C_58 
REMARK   28  A    between atoms: C_58  and  O_60 
ROOT
ATOM      1  O   UNK d   0     -34.552  16.558   4.449  0.00  0.00    -0.650 OA
ATOM      2  C   UNK d   0     -35.590  16.067   3.952  0.00  0.00     0.139 C 
ENDROOT
BRANCH   2   3
ATOM      3  O   UNK d   0     -35.890  14.747   4.188  0.00  0.00    -0.776 OA
ATOM      4  H   UNK d   0     -36.834  14.385   4.034  0.00  0.00     0.167 HD
ENDBRANCH   2   3
BRANCH   2   5
ATOM      5  C   UNK d   0     -36.489  16.909   3.113  0.00  0.00     0.115 C 
BRANCH   5   6
ATOM      6  C   UNK d   0     -37.532  17.569   3.974  0.00  0.00     0.052 C 
BRANCH   6   7
ATOM      7  C   UNK d   0     -38.870  17.679   3.283  0.00  0.00    -0.020 A 
ATOM      8  C   UNK d   0     -39.979  17.055   3.587  0.00  0.00    -0.011 A 
ATOM      9  C   UNK d   0     -40.999  17.472   2.638  0.00  0.00     0.067 A 
ATOM     10  C   UNK d   0     -42.360  17.201   2.431  0.00  0.00     0.062 C 
ATOM     11  N   UNK d   0     -40.422  18.348   1.789  0.00  0.00    -0.248 NA
ATOM     12  C   UNK d   0     -43.253  17.917   1.626  0.00  0.00     0.041 A 
ATOM     13  N   UNK d   0     -43.113  18.439   0.393  0.00  0.00    -0.355 N 
ATOM     14  C   UNK d   0     -44.524  18.236   2.138  0.00  0.00    -0.022 A 
ATOM     15  C   UNK d   0     -44.258  19.089   0.113  0.00  0.00     0.042 A 
ATOM     16  H   UNK d   0     -42.229  18.334  -0.273  0.00  0.00     0.166 HD
ATOM     17  C   UNK d   0     -44.643  19.807  -1.037  0.00  0.00     0.062 C 
ATOM     18  C   UNK d   0     -45.167  18.984   1.183  0.00  0.00    -0.013 A 
ATOM     19  C   UNK d   0     -43.925  20.723  -1.762  0.00  0.00     0.067 A 
ATOM     20  N   UNK d   0     -42.622  20.825  -1.487  0.00  0.00    -0.248 NA
ATOM     21  C   UNK d   0     -44.218  21.687  -2.810  0.00  0.00    -0.011 A 
ATOM     22  C   UNK d   0     -42.042  21.787  -2.277  0.00  0.00     0.066 A 
ATOM     23  C   UNK d   0     -40.677  21.973  -2.120  0.00  0.00     0.062 C 
ATOM     24  C   UNK d   0     -43.113  22.309  -3.103  0.00  0.00    -0.020 A 
ATOM     25  C   UNK d   0     -39.795  21.234  -1.316  0.00  0.00     0.041 A 
ATOM     26  N   UNK d   0     -39.929  20.728  -0.084  0.00  0.00    -0.355 N 
ATOM     27  C   UNK d   0     -38.521  20.910  -1.832  0.00  0.00    -0.022 A 
ATOM     28  C   UNK d   0     -38.785  20.087   0.201  0.00  0.00     0.042 A 
ATOM     29  H   UNK d   0     -40.814  20.843   0.589  0.00  0.00     0.166 HD
ATOM     30  C   UNK d   0     -38.385  19.377   1.344  0.00  0.00     0.062 C 
ATOM     31  C   UNK d   0     -37.876  20.184  -0.879  0.00  0.00    -0.013 A 
ATOM     32  C   UNK d   0     -39.141  18.516   2.124  0.00  0.00     0.066 A 
BRANCH   8  33
ATOM     33  C   UNK d   0     -40.180  16.091   4.685  0.00  0.00     0.151 C 
BRANCH  33  34
ATOM     34  C   UNK d   0     -39.991  14.693   4.259  0.00  0.00     0.143 C 
ATOM     35  O   UNK d   0     -38.857  14.199   4.181  0.00  0.00    -0.650 OA
BRANCH  34  36
ATOM     36  O   UNK d   0     -41.091  13.929   3.942  0.00  0.00    -0.776 OA
ATOM     37  H   UNK d   0     -41.079  13.283   3.141  0.00  0.00     0.167 HD
ENDBRANCH  34  36
ENDBRANCH  33  34
ENDBRANCH   8  33
BRANCH  31  38
ATOM     38  C   UNK d   0     -36.485  19.604  -0.990  0.00  0.00     0.151 C 
BRANCH  38  39
ATOM     39  C   UNK d   0     -36.489  18.192  -1.311  0.00  0.00     0.143 C 
ATOM     40  O   UNK d   0     -37.532  17.578  -1.598  0.00  0.00    -0.650 OA
BRANCH  39  41
ATOM     41  O   UNK d   0     -35.288  17.483  -1.302  0.00  0.00    -0.776 OA
ATOM     42  H   UNK d   0     -34.454  17.992  -0.993  0.00  0.00     0.167 HD
ENDBRANCH  39  41
ENDBRANCH  38  39
ENDBRANCH  31  38
BRANCH  27  43
ATOM     43  C   UNK d   0     -37.911  21.260  -3.166  0.00  0.00     0.052 C 
BRANCH  43  44
ATOM     44  C   UNK d   0     -38.181  20.241  -4.225  0.00  0.00     0.115 C 
BRANCH  44  45
ATOM     45  C   UNK d   0     -36.867  19.656  -4.597  0.00  0.00     0.139 C 
ATOM     46  O   UNK d   0     -35.936  20.440  -4.905  0.00  0.00    -0.650 OA
BRANCH  45  47
ATOM     47  O   UNK d   0     -36.631  18.298  -4.612  0.00  0.00    -0.776 OA
ATOM     48  H   UNK d   0     -35.935  17.844  -3.999  0.00  0.00     0.167 HD
ENDBRANCH  45  47
ENDBRANCH  44  45
ENDBRANCH  43  44
ENDBRANCH  27  43
BRANCH  24  49
ATOM     49  C   UNK d   0     -42.947  23.343  -4.140  0.00  0.00     0.052 C 
BRANCH  49  50
ATOM     50  C   UNK d   0     -41.747  23.037  -4.998  0.00  0.00     0.115 C 
BRANCH  50  51
ATOM     51  C   UNK d   0     -41.993  22.391  -6.280  0.00  0.00     0.139 C 
ATOM     52  O   UNK d   0     -42.641  21.322  -6.386  0.00  0.00    -0.650 OA
BRANCH  51  53
ATOM     53  O   UNK d   0     -41.499  22.962  -7.443  0.00  0.00    -0.776 OA
ATOM     54  H   UNK d   0     -41.737  22.535  -8.321  0.00  0.00     0.167 HD
ENDBRANCH  51  53
ENDBRANCH  50  51
ENDBRANCH  49  50
ENDBRANCH  24  49
BRANCH  21  55
ATOM     55  C   UNK d   0     -45.570  21.882  -3.411  0.00  0.00     0.151 C 
BRANCH  55  56
ATOM     56  C   UNK d   0     -45.920  20.800  -4.345  0.00  0.00     0.143 C 
ATOM     57  O   UNK d   0     -46.775  19.932  -4.082  0.00  0.00    -0.650 OA
BRANCH  56  58
ATOM     58  O   UNK d   0     -45.256  20.761  -5.570  0.00  0.00    -0.776 OA
ATOM     59  H   UNK d   0     -44.463  20.096  -5.616  0.00  0.00     0.167 HD
ENDBRANCH  56  58
ENDBRANCH  55  56
ENDBRANCH  21  55
BRANCH  18  60
ATOM     60  C   UNK d   0     -46.560  19.548   1.320  0.00  0.00     0.151 C 
BRANCH  60  61
ATOM     61  C   UNK d   0     -47.475  18.466   0.928  0.00  0.00     0.143 C 
ATOM     62  O   UNK d   0     -47.503  17.872  -0.150  0.00  0.00    -0.650 OA
BRANCH  61  63
ATOM     63  O   UNK d   0     -48.414  18.084   1.916  0.00  0.00    -0.776 OA
ATOM     64  H   UNK d   0     -49.358  17.843   1.669  0.00  0.00     0.167 HD
ENDBRANCH  61  63
ENDBRANCH  60  61
ENDBRANCH  18  60
BRANCH  14  65
ATOM     65  C   UNK d   0     -45.206  17.810   3.407  0.00  0.00     0.052 C 
BRANCH  65  66
ATOM     66  C   UNK d   0     -45.213  18.872   4.449  0.00  0.00     0.115 C 
BRANCH  66  67
ATOM     67  C   UNK d   0     -44.275  18.811   5.534  0.00  0.00     0.139 C 
ATOM     68  O   UNK d   0     -43.026  18.975   5.275  0.00  0.00    -0.650 OA
BRANCH  67  69
ATOM     69  O   UNK d   0     -44.544  18.587   6.884  0.00  0.00    -0.776 OA
ATOM     70  H   UNK d   0     -45.488  18.236   7.100  0.00  0.00     0.167 HD
ENDBRANCH  67  69
ENDBRANCH  66  67
ENDBRANCH  65  66
ENDBRANCH  14  65
ENDBRANCH   6   7
ENDBRANCH   5   6
ENDBRANCH   2   5
TORSDOF 28
ENDMDL
MODEL 19
REMARK VINA RESULT:      -6.4      2.446     11.118
REMARK  28 active torsions:
REMARK  status: ('A' for Active; 'I' for Inactive)
REMARK    1  A    between atoms: C_2  and  O_3 
REMARK    2  A    between atoms: C_2  and  C_4 
REMARK    3  A    between atoms: C_4  and  C_5 
REMARK    4  A    between atoms: C_5  and  C_6 
REMARK    5  A    between atoms: C_7  and  C_8 
REMARK    6  A    between atoms: C_8  and  C_9 
REMARK    7  A    between atoms: C_9  and  O_11 
REMARK    8  A    between atoms: C_28  and  C_29 
REMARK    9  A    between atoms: C_29  and  C_30 
REMARK   10  A    between atoms: C_30  and  O_32 
REMARK   11  A    between atoms: C_33  and  C_34 
REMARK   12  A    between atoms: C_34  and  C_35 
REMARK   13  A    between atoms: C_35  and  C_36 
REMARK   14  A    between atoms: C_36  and  O_38 
REMARK   15  A    between atoms: C_39  and  C_40 
REMARK   16  A    between atoms: C_40  and  C_41 
REMARK   17  A    between atoms: C_41  and  C_42 
REMARK   18  A    between atoms: C_42  and  O_44 
REMARK   19  A    between atoms: C_45  and  C_46 
REMARK   20  A    between atoms: C_46  and  C_47 
REMARK   21  A    between atoms: C_47  and  O_49 
REMARK   22  A    between atoms: C_50  and  C_51 
REMARK   23  A    between atoms: C_51  and  C_52 
REMARK   24  A    between atoms: C_52  and  O_54 
REMARK   25  A    between atoms: C_55  and  C_56 
REMARK   26  A    between atoms: C_56  and  C_57 
REMARK   27  A    between atoms: C_57  and  C_58 
REMARK   28  A    between atoms: C_58  and  O_60 
ROOT
ATOM      1  O   UNK d   0     -35.304  24.548  -4.232  0.00  0.00    -0.650 OA
ATOM      2  C   UNK d   0     -35.264  23.433  -4.799  0.00  0.00     0.139 C 
ENDROOT
BRANCH   2   3
ATOM      3  O   UNK d   0     -35.724  23.316  -6.089  0.00  0.00    -0.776 OA
ATOM      4  H   UNK d   0     -36.429  22.619  -6.336  0.00  0.00     0.167 HD
ENDBRANCH   2   3
BRANCH   2   5
ATOM      5  C   UNK d   0     -34.723  22.247  -4.077  0.00  0.00     0.115 C 
BRANCH   5   6
ATOM      6  C   UNK d   0     -35.199  20.980  -4.735  0.00  0.00     0.052 C 
BRANCH   6   7
ATOM      7  C   UNK d   0     -36.329  20.322  -3.979  0.00  0.00    -0.020 A 
ATOM      8  C   UNK d   0     -36.238  19.437  -3.020  0.00  0.00    -0.011 A 
ATOM      9  C   UNK d   0     -37.588  19.089  -2.606  0.00  0.00     0.067 A 
ATOM     10  C   UNK d   0     -38.167  18.246  -1.645  0.00  0.00     0.062 C 
ATOM     11  N   UNK d   0     -38.438  19.806  -3.371  0.00  0.00    -0.248 NA
ATOM     12  C   UNK d   0     -39.494  18.251  -1.203  0.00  0.00     0.041 A 
ATOM     13  N   UNK d   0     -40.653  18.368  -1.879  0.00  0.00    -0.355 N 
ATOM     14  C   UNK d   0     -39.752  18.179   0.178  0.00  0.00    -0.022 A 
ATOM     15  C   UNK d   0     -41.639  18.380  -0.962  0.00  0.00     0.042 A 
ATOM     16  H   UNK d   0     -40.773  18.420  -2.983  0.00  0.00     0.166 HD
ATOM     17  C   UNK d   0     -43.035  18.481  -1.123  0.00  0.00     0.062 C 
ATOM     18  C   UNK d   0     -41.112  18.264   0.339  0.00  0.00    -0.013 A 
ATOM     19  C   UNK d   0     -43.751  19.327  -1.930  0.00  0.00     0.067 A 
ATOM     20  N   UNK d   0     -43.062  20.024  -2.839  0.00  0.00    -0.248 NA
ATOM     21  C   UNK d   0     -45.146  19.709  -2.067  0.00  0.00    -0.011 A 
ATOM     22  C   UNK d   0     -43.906  20.834  -3.558  0.00  0.00     0.066 A 
ATOM     23  C   UNK d   0     -43.324  21.589  -4.566  0.00  0.00     0.062 C 
ATOM     24  C   UNK d   0     -45.230  20.594  -3.018  0.00  0.00    -0.020 A 
ATOM     25  C   UNK d   0     -41.991  21.560  -5.003  0.00  0.00     0.041 A 
ATOM     26  N   UNK d   0     -40.839  21.459  -4.330  0.00  0.00    -0.355 N 
ATOM     27  C   UNK d   0     -41.733  21.627  -6.389  0.00  0.00    -0.022 A 
ATOM     28  C   UNK d   0     -39.853  21.455  -5.242  0.00  0.00     0.042 A 
ATOM     29  H   UNK d   0     -40.719  21.416  -3.219  0.00  0.00     0.166 HD
ATOM     30  C   UNK d   0     -38.460  21.364  -5.095  0.00  0.00     0.062 C 
ATOM     31  C   UNK d   0     -40.384  21.561  -6.550  0.00  0.00    -0.013 A 
ATOM     32  C   UNK d   0     -37.743  20.568  -4.217  0.00  0.00     0.066 A 
BRANCH   8  33
ATOM     33  C   UNK d   0     -35.001  18.874  -2.449  0.00  0.00     0.151 C 
BRANCH  33  34
ATOM     34  C   UNK d   0     -34.714  19.382  -1.095  0.00  0.00     0.143 C 
ATOM     35  O   UNK d   0     -34.292  18.627  -0.208  0.00  0.00    -0.650 OA
BRANCH  34  36
ATOM     36  O   UNK d   0     -34.921  20.713  -0.816  0.00  0.00    -0.776 OA
ATOM     37  H   UNK d   0     -35.595  21.010  -0.097  0.00  0.00     0.167 HD
ENDBRANCH  34  36
ENDBRANCH  33  34
ENDBRANCH   8  33
BRANCH  31  38
ATOM     38  C   UNK d   0     -39.640  21.583  -7.865  0.00  0.00     0.151 C 
BRANCH  38  39
ATOM     39  C   UNK d   0     -39.770  20.345  -8.604  0.00  0.00     0.143 C 
ATOM     40  O   UNK d   0     -39.974  19.254  -8.044  0.00  0.00    -0.650 OA
BRANCH  39  41
ATOM     41  O   UNK d   0     -39.666  20.363  -9.995  0.00  0.00    -0.776 OA
ATOM     42  H   UNK d   0     -39.804  19.470 -10.479  0.00  0.00     0.167 HD
ENDBRANCH  39  41
ENDBRANCH  38  39
ENDBRANCH  31  38
BRANCH  27  43
ATOM     43  C   UNK d   0     -42.702  21.751  -7.539  0.00  0.00     0.052 C 
BRANCH  43  44
ATOM     44  C   UNK d   0     -43.157  23.154  -7.780  0.00  0.00     0.115 C 
BRANCH  44  45
ATOM     45  C   UNK d   0     -44.549  23.067  -8.293  0.00  0.00     0.139 C 
ATOM     46  O   UNK d   0     -45.068  24.104  -8.775  0.00  0.00    -0.650 OA
BRANCH  45  47
ATOM     47  O   UNK d   0     -45.283  21.901  -8.266  0.00  0.00    -0.776 OA
ATOM     48  H   UNK d   0     -45.248  21.199  -9.022  0.00  0.00     0.167 HD
ENDBRANCH  45  47
ENDBRANCH  44  45
ENDBRANCH  43  44
ENDBRANCH  27  43
BRANCH  24  49
ATOM     49  C   UNK d   0     -46.466  21.223  -3.514  0.00  0.00     0.052 C 
BRANCH  49  50
ATOM     50  C   UNK d   0     -46.674  20.894  -4.970  0.00  0.00     0.115 C 
BRANCH  50  51
ATOM     51  C   UNK d   0     -47.617  19.829  -5.283  0.00  0.00     0.139 C 
ATOM     52  O   UNK d   0     -48.820  20.050  -5.560  0.00  0.00    -0.650 OA
BRANCH  51  53
ATOM     53  O   UNK d   0     -47.189  18.510  -5.279  0.00  0.00    -0.776 OA
ATOM     54  H   UNK d   0     -46.209  18.328  -5.406  0.00  0.00     0.167 HD
ENDBRANCH  51  53
ENDBRANCH  50  51
ENDBRANCH  49  50
ENDBRANCH  24  49
BRANCH  21  55
ATOM     55  C   UNK d   0     -46.251  19.147  -1.236  0.00  0.00     0.151 C 
BRANCH  55  56
ATOM     56  C   UNK d   0     -46.710  17.842  -1.737  0.00  0.00     0.143 C 
ATOM     57  O   UNK d   0     -47.540  17.139  -1.129  0.00  0.00    -0.650 OA
BRANCH  56  58
ATOM     58  O   UNK d   0     -46.183  17.390  -2.946  0.00  0.00    -0.776 OA
ATOM     59  H   UNK d   0     -45.931  16.385  -2.964  0.00  0.00     0.167 HD
ENDBRANCH  56  58
ENDBRANCH  55  56
ENDBRANCH  21  55
BRANCH  18  60
ATOM     60  C   UNK d   0     -41.829  18.237   1.667  0.00  0.00     0.151 C 
BRANCH  60  61
ATOM     61  C   UNK d   0     -42.233  16.838   1.878  0.00  0.00     0.143 C 
ATOM     62  O   UNK d   0     -41.940  15.867   1.180  0.00  0.00    -0.650 OA
BRANCH  61  63
ATOM     63  O   UNK d   0     -43.045  16.611   3.015  0.00  0.00    -0.776 OA
ATOM     64  H   UNK d   0     -43.585  15.769   3.107  0.00  0.00     0.167 HD
ENDBRANCH  61  63
ENDBRANCH  60  61
ENDBRANCH  18  60
BRANCH  14  65
ATOM     65  C   UNK d   0     -38.827  17.941   1.338  0.00  0.00     0.052 C 
BRANCH  65  66
ATOM     66  C   UNK d   0     -38.439  19.193   2.040  0.00  0.00     0.115 C 
BRANCH  66  67
ATOM     67  C   UNK d   0     -37.255  19.898   1.635  0.00  0.00     0.139 C 
ATOM     68  O   UNK d   0     -37.364  20.821   0.747  0.00  0.00    -0.650 OA
BRANCH  67  69
ATOM     69  O   UNK d   0     -35.952  19.710   2.093  0.00  0.00    -0.776 OA
ATOM     70  H   UNK d   0     -35.211  20.158   1.534  0.00  0.00     0.167 HD
ENDBRANCH  67  69
ENDBRANCH  66  67
ENDBRANCH  65  66
ENDBRANCH  14  65
ENDBRANCH   6   7
ENDBRANCH   5   6
ENDBRANCH   2   5
TORSDOF 28
ENDMDL
MODEL 20
REMARK VINA RESULT:      -6.4      2.135      7.923
REMARK  28 active torsions:
REMARK  status: ('A' for Active; 'I' for Inactive)
REMARK    1  A    between atoms: C_2  and  O_3 
REMARK    2  A    between atoms: C_2  and  C_4 
REMARK    3  A    between atoms: C_4  and  C_5 
REMARK    4  A    between atoms: C_5  and  C_6 
REMARK    5  A    between atoms: C_7  and  C_8 
REMARK    6  A    between atoms: C_8  and  C_9 
REMARK    7  A    between atoms: C_9  and  O_11 
REMARK    8  A    between atoms: C_28  and  C_29 
REMARK    9  A    between atoms: C_29  and  C_30 
REMARK   10  A    between atoms: C_30  and  O_32 
REMARK   11  A    between atoms: C_33  and  C_34 
REMARK   12  A    between atoms: C_34  and  C_35 
REMARK   13  A    between atoms: C_35  and  C_36 
REMARK   14  A    between atoms: C_36  and  O_38 
REMARK   15  A    between atoms: C_39  and  C_40 
REMARK   16  A    between atoms: C_40  and  C_41 
REMARK   17  A    between atoms: C_41  and  C_42 
REMARK   18  A    between atoms: C_42  and  O_44 
REMARK   19  A    between atoms: C_45  and  C_46 
REMARK   20  A    between atoms: C_46  and  C_47 
REMARK   21  A    between atoms: C_47  and  O_49 
REMARK   22  A    between atoms: C_50  and  C_51 
REMARK   23  A    between atoms: C_51  and  C_52 
REMARK   24  A    between atoms: C_52  and  O_54 
REMARK   25  A    between atoms: C_55  and  C_56 
REMARK   26  A    between atoms: C_56  and  C_57 
REMARK   27  A    between atoms: C_57  and  C_58 
REMARK   28  A    between atoms: C_58  and  O_60 
ROOT
ATOM      1  O   UNK d   0     -35.359  19.919  -2.488  0.00  0.00    -0.650 OA
ATOM      2  C   UNK d   0     -35.814  19.503  -3.576  0.00  0.00     0.139 C 
ENDROOT
BRANCH   2   3
ATOM      3  O   UNK d   0     -35.557  18.210  -3.963  0.00  0.00    -0.776 OA
ATOM      4  H   UNK d   0     -36.250  17.667  -4.483  0.00  0.00     0.167 HD
ENDBRANCH   2   3
BRANCH   2   5
ATOM      5  C   UNK d   0     -36.627  20.404  -4.441  0.00  0.00     0.115 C 
BRANCH   5   6
ATOM      6  C   UNK d   0     -37.741  19.630  -5.093  0.00  0.00     0.052 C 
BRANCH   6   7
ATOM      7  C   UNK d   0     -39.093  19.949  -4.503  0.00  0.00    -0.020 A 
ATOM      8  C   UNK d   0     -40.054  20.654  -5.044  0.00  0.00    -0.011 A 
ATOM      9  C   UNK d   0     -41.160  20.695  -4.101  0.00  0.00     0.067 A 
ATOM     10  C   UNK d   0     -42.450  21.248  -4.077  0.00  0.00     0.062 C 
ATOM     11  N   UNK d   0     -40.784  19.995  -3.011  0.00  0.00    -0.248 NA
ATOM     12  C   UNK d   0     -43.485  20.947  -3.186  0.00  0.00     0.041 A 
ATOM     13  N   UNK d   0     -43.479  20.762  -1.852  0.00  0.00    -0.355 N 
ATOM     14  C   UNK d   0     -44.779  20.730  -3.693  0.00  0.00    -0.022 A 
ATOM     15  C   UNK d   0     -44.735  20.425  -1.501  0.00  0.00     0.042 A 
ATOM     16  H   UNK d   0     -42.610  20.886  -1.169  0.00  0.00     0.166 HD
ATOM     17  C   UNK d   0     -45.281  20.125  -0.237  0.00  0.00     0.062 C 
ATOM     18  C   UNK d   0     -45.578  20.394  -2.628  0.00  0.00    -0.013 A 
ATOM     19  C   UNK d   0     -44.770  19.329   0.756  0.00  0.00     0.067 A 
ATOM     20  N   UNK d   0     -43.504  18.927   0.618  0.00  0.00    -0.248 NA
ATOM     21  C   UNK d   0     -45.270  18.752   1.993  0.00  0.00    -0.011 A 
ATOM     22  C   UNK d   0     -43.140  18.128   1.675  0.00  0.00     0.066 A 
ATOM     23  C   UNK d   0     -41.831  17.670   1.678  0.00  0.00     0.062 C 
ATOM     24  C   UNK d   0     -44.312  18.047   2.524  0.00  0.00    -0.020 A 
ATOM     25  C   UNK d   0     -40.803  17.995   0.779  0.00  0.00     0.041 A 
ATOM     26  N   UNK d   0     -40.805  18.164  -0.548  0.00  0.00    -0.355 N 
ATOM     27  C   UNK d   0     -39.505  18.217   1.290  0.00  0.00    -0.022 A 
ATOM     28  C   UNK d   0     -39.552  18.491  -0.902  0.00  0.00     0.042 A 
ATOM     29  H   UNK d   0     -41.677  18.029  -1.234  0.00  0.00     0.166 HD
ATOM     30  C   UNK d   0     -38.993  18.783  -2.156  0.00  0.00     0.062 C 
ATOM     31  C   UNK d   0     -38.708  18.532   0.233  0.00  0.00    -0.013 A 
ATOM     32  C   UNK d   0     -39.550  19.519  -3.190  0.00  0.00     0.066 A 
BRANCH   8  33
ATOM     33  C   UNK d   0     -40.038  21.303  -6.368  0.00  0.00     0.151 C 
BRANCH  33  34
ATOM     34  C   UNK d   0     -40.623  20.458  -7.425  0.00  0.00     0.143 C 
ATOM     35  O   UNK d   0     -39.953  19.571  -7.973  0.00  0.00    -0.650 OA
BRANCH  34  36
ATOM     36  O   UNK d   0     -41.929  20.661  -7.806  0.00  0.00    -0.776 OA
ATOM     37  H   UNK d   0     -42.377  20.065  -8.515  0.00  0.00     0.167 HD
ENDBRANCH  34  36
ENDBRANCH  33  34
ENDBRANCH   8  33
BRANCH  31  38
ATOM     38  C   UNK d   0     -37.236  18.866   0.296  0.00  0.00     0.151 C 
BRANCH  38  39
ATOM     39  C   UNK d   0     -36.390  17.696   0.186  0.00  0.00     0.143 C 
ATOM     40  O   UNK d   0     -35.926  17.114   1.183  0.00  0.00    -0.650 OA
BRANCH  39  41
ATOM     41  O   UNK d   0     -36.076  17.192  -1.076  0.00  0.00    -0.776 OA
ATOM     42  H   UNK d   0     -36.318  16.212  -1.254  0.00  0.00     0.167 HD
ENDBRANCH  39  41
ENDBRANCH  38  39
ENDBRANCH  31  38
BRANCH  27  43
ATOM     43  C   UNK d   0     -39.009  18.140   2.712  0.00  0.00     0.052 C 
BRANCH  43  44
ATOM     44  C   UNK d   0     -39.175  19.419   3.466  0.00  0.00     0.115 C 
BRANCH  44  45
ATOM     45  C   UNK d   0     -39.876  19.078   4.731  0.00  0.00     0.139 C 
ATOM     46  O   UNK d   0     -39.971  17.866   5.047  0.00  0.00    -0.650 OA
BRANCH  45  47
ATOM     47  O   UNK d   0     -40.416  20.032   5.567  0.00  0.00    -0.776 OA
ATOM     48  H   UNK d   0     -41.423  20.260   5.580  0.00  0.00     0.167 HD
ENDBRANCH  45  47
ENDBRANCH  44  45
ENDBRANCH  43  44
ENDBRANCH  27  43
BRANCH  24  49
ATOM     49  C   UNK d   0     -44.375  17.321   3.804  0.00  0.00     0.052 C 
BRANCH  49  50
ATOM     50  C   UNK d   0     -43.375  17.889   4.778  0.00  0.00     0.115 C 
BRANCH  50  51
ATOM     51  C   UNK d   0     -43.830  18.967   5.646  0.00  0.00     0.139 C 
ATOM     52  O   UNK d   0     -43.599  20.175   5.402  0.00  0.00    -0.650 OA
BRANCH  51  53
ATOM     53  O   UNK d   0     -44.547  18.667   6.794  0.00  0.00    -0.776 OA
ATOM     54  H   UNK d   0     -45.365  19.213   7.000  0.00  0.00     0.167 HD
ENDBRANCH  51  53
ENDBRANCH  50  51
ENDBRANCH  49  50
ENDBRANCH  24  49
BRANCH  21  55
ATOM     55  C   UNK d   0     -46.650  18.969   2.518  0.00  0.00     0.151 C 
BRANCH  55  56
ATOM     56  C   UNK d   0     -46.668  19.903   3.654  0.00  0.00     0.143 C 
ATOM     57  O   UNK d   0     -47.346  19.703   4.682  0.00  0.00    -0.650 OA
BRANCH  56  58
ATOM     58  O   UNK d   0     -45.887  21.054   3.561  0.00  0.00    -0.776 OA
ATOM     59  H   UNK d   0     -46.421  21.934   3.445  0.00  0.00     0.167 HD
ENDBRANCH  56  58
ENDBRANCH  55  56
ENDBRANCH  21  55
BRANCH  18  60
ATOM     60  C   UNK d   0     -47.048  20.069  -2.720  0.00  0.00     0.151 C 
BRANCH  60  61
ATOM     61  C   UNK d   0     -47.125  18.663  -3.146  0.00  0.00     0.143 C 
ATOM     62  O   UNK d   0     -47.504  18.237  -4.237  0.00  0.00    -0.650 OA
BRANCH  61  63
ATOM     63  O   UNK d   0     -46.711  17.717  -2.177  0.00  0.00    -0.776 OA
ATOM     64  H   UNK d   0     -47.040  17.769  -1.229  0.00  0.00     0.167 HD
ENDBRANCH  61  63
ENDBRANCH  60  61
ENDBRANCH  18  60
BRANCH  14  65
ATOM     65  C   UNK d   0     -45.332  20.909  -5.078  0.00  0.00     0.052 C 
BRANCH  65  66
ATOM     66  C   UNK d   0     -45.197  22.302  -5.582  0.00  0.00     0.115 C 
BRANCH  66  67
ATOM     67  C   UNK d   0     -44.655  22.536  -6.891  0.00  0.00     0.139 C 
ATOM     68  O   UNK d   0     -45.263  22.033  -7.906  0.00  0.00    -0.650 OA
BRANCH  67  69
ATOM     69  O   UNK d   0     -43.512  23.262  -7.224  0.00  0.00    -0.776 OA
ATOM     70  H   UNK d   0     -42.674  23.062  -6.660  0.00  0.00     0.167 HD
ENDBRANCH  67  69
ENDBRANCH  66  67
ENDBRANCH  65  66
ENDBRANCH  14  65
ENDBRANCH   6   7
ENDBRANCH   5   6
ENDBRANCH   2   5
TORSDOF 28
ENDMDL
