MODEL 1
REMARK VINA RESULT:      -9.4      0.000      0.000
REMARK  16 active torsions:
REMARK  status: ('A' for Active; 'I' for Inactive)
REMARK    1  A    between atoms: C_6  and  C_7 
REMARK    2  A    between atoms: C_7  and  C_8 
REMARK    3  A    between atoms: C_8  and  C_9 
REMARK    4  A    between atoms: C_9  and  O_11 
REMARK    5  A    between atoms: C_16  and  C_17 
REMARK    6  A    between atoms: C_17  and  C_18 
REMARK    7  A    between atoms: C_18  and  C_19 
REMARK    8  A    between atoms: C_19  and  O_21 
REMARK    9  A    between atoms: C_28  and  C_29 
REMARK   10  A    between atoms: C_29  and  C_30 
REMARK   11  A    between atoms: C_30  and  C_31 
REMARK   12  A    between atoms: C_31  and  O_33 
REMARK   13  A    between atoms: C_42  and  C_43 
REMARK   14  A    between atoms: C_43  and  C_44 
REMARK   15  A    between atoms: C_44  and  C_45 
REMARK   16  A    between atoms: C_45  and  O_47 
ROOT
HETATM    1  C   UNK     0     -23.592  -6.630   8.318  0.00  0.00     0.051 C 
HETATM    2  C   UNK     0     -24.422  -5.796   9.273  0.00  0.00    -0.031 A 
HETATM    3  C   UNK     0     -24.614  -4.424   9.303  0.00  0.00     0.021 A 
HETATM    4  N   UNK     0     -25.411  -4.114  10.353  0.00  0.00    -0.361 N 
HETATM    5  C   UNK     0     -25.737  -5.259  10.987  0.00  0.00     0.022 A 
HETATM    6  C   UNK     0     -25.133  -6.331  10.339  0.00  0.00    -0.027 A 
HETATM    7  C   UNK     0     -26.664  -5.477  12.143  0.00  0.00     0.115 C 
HETATM    8  C   UNK     0     -27.975  -4.710  12.119  0.00  0.00     0.021 A 
HETATM    9  N   UNK     0     -28.740  -4.394  11.063  0.00  0.00    -0.361 N 
HETATM   10  C   UNK     0     -29.762  -3.629  11.499  0.00  0.00     0.022 A 
HETATM   11  C   UNK     0     -29.658  -3.455  12.876  0.00  0.00    -0.027 A 
HETATM   12  C   UNK     0     -28.534  -4.133  13.273  0.00  0.00    -0.031 A 
HETATM   13  C   UNK     0     -28.026  -4.227  14.694  0.00  0.00     0.051 C 
HETATM   14  C   UNK     0     -30.843  -2.989  10.633  0.00  0.00     0.115 C 
HETATM   15  C   UNK     0     -30.306  -2.011   9.600  0.00  0.00     0.021 A 
HETATM   16  N   UNK     0     -29.418  -2.258   8.620  0.00  0.00    -0.361 N 
HETATM   17  C   UNK     0     -29.153  -1.121   7.972  0.00  0.00     0.022 A 
HETATM   18  C   UNK     0     -29.913  -0.086   8.552  0.00  0.00    -0.027 A 
HETATM   19  C   UNK     0     -30.632  -0.657   9.570  0.00  0.00    -0.031 A 
HETATM   20  C   UNK     0     -31.616   0.105  10.439  0.00  0.00     0.051 C 
HETATM   21  C   UNK     0     -28.179  -0.846   6.849  0.00  0.00     0.115 C 
HETATM   22  C   UNK     0     -26.890  -1.634   6.835  0.00  0.00     0.022 A 
HETATM   23  N   UNK     0     -26.110  -1.967   7.872  0.00  0.00    -0.361 N 
HETATM   24  C   UNK     0     -25.142  -2.793   7.426  0.00  0.00     0.021 A 
HETATM   25  C   UNK     0     -25.297  -2.989   6.067  0.00  0.00    -0.031 A 
HETATM   26  C   UNK     0     -24.440  -3.798   5.116  0.00  0.00     0.051 C 
HETATM   27  C   UNK     0     -26.409  -2.257   5.666  0.00  0.00    -0.027 A 
HETATM   28  C   UNK     0     -24.078  -3.505   8.243  0.00  0.00     0.115 C 
HETATM   29  H   UNK     0     -25.705  -3.084  10.662  0.00  0.00     0.165 HD
HETATM   30  H   UNK     0     -28.588  -4.752  10.015  0.00  0.00     0.165 HD
HETATM   31  H   UNK     0     -29.004  -3.263   8.348  0.00  0.00     0.165 HD
HETATM   32  H   UNK     0     -26.209  -1.586   8.922  0.00  0.00     0.165 HD
ENDROOT
BRANCH   6  33
HETATM   33  C   UNK     0     -25.177  -7.805  10.654  0.00  0.00     0.051 C 
BRANCH  33  34
HETATM   34  C   UNK     0     -26.604  -8.284  10.771  0.00  0.00     0.114 C 
BRANCH  34  35
HETATM   35  C   UNK     0     -27.276  -8.010   9.469  0.00  0.00     0.139 C 
HETATM   36  O   UNK     0     -28.280  -7.241   9.419  0.00  0.00    -0.650 OA
BRANCH  35  37
HETATM   37  O   UNK     0     -26.845  -8.568   8.271  0.00  0.00    -0.776 OA
HETATM   38  H   UNK     0     -26.557  -8.001   7.490  0.00  0.00     0.167 HD
ENDBRANCH  35  37
ENDBRANCH  34  35
ENDBRANCH  33  34
ENDBRANCH   6  33
BRANCH  27  39
HETATM   39  C   UNK     0     -26.850  -2.164   4.247  0.00  0.00     0.051 C 
BRANCH  39  40
HETATM   40  C   UNK     0     -26.246  -1.137   3.399  0.00  0.00     0.114 C 
BRANCH  40  41
HETATM   41  C   UNK     0     -26.046   0.220   3.855  0.00  0.00     0.139 C 
HETATM   42  O   UNK     0     -24.953   0.658   4.240  0.00  0.00    -0.650 OA
BRANCH  41  43
HETATM   43  O   UNK     0     -27.154   1.115   3.870  0.00  0.00    -0.776 OA
HETATM   44  H   UNK     0     -27.429   1.457   2.958  0.00  0.00     0.167 HD
ENDBRANCH  41  43
ENDBRANCH  40  41
ENDBRANCH  39  40
ENDBRANCH  27  39
BRANCH  11  45
HETATM   45  C   UNK     0     -30.567  -2.689  13.800  0.00  0.00     0.051 C 
BRANCH  45  46
HETATM   46  C   UNK     0     -31.911  -3.297  13.970  0.00  0.00     0.114 C 
BRANCH  46  47
HETATM   47  C   UNK     0     -31.816  -4.268  15.098  0.00  0.00     0.139 C 
HETATM   48  O   UNK     0     -32.377  -5.367  14.983  0.00  0.00    -0.650 OA
BRANCH  47  49
HETATM   49  O   UNK     0     -31.125  -3.952  16.241  0.00  0.00    -0.776 OA
HETATM   50  H   UNK     0     -31.172  -3.019  16.666  0.00  0.00     0.167 HD
ENDBRANCH  47  49
ENDBRANCH  46  47
ENDBRANCH  45  46
ENDBRANCH  11  45
BRANCH  18  51
HETATM   51  C   UNK     0     -29.967   1.364   8.145  0.00  0.00     0.051 C 
BRANCH  51  52
HETATM   52  C   UNK     0     -29.308   2.147   9.271  0.00  0.00     0.114 C 
BRANCH  52  53
HETATM   53  C   UNK     0     -28.024   2.739   8.849  0.00  0.00     0.139 C 
HETATM   54  O   UNK     0     -27.863   3.969   8.888  0.00  0.00    -0.650 OA
BRANCH  53  55
HETATM   55  O   UNK     0     -27.010   1.921   8.412  0.00  0.00    -0.776 OA
HETATM   56  H   UNK     0     -26.159   1.739   8.889  0.00  0.00     0.167 HD
ENDBRANCH  53  55
ENDBRANCH  52  53
ENDBRANCH  51  52
ENDBRANCH  18  51
TORSDOF 16
ENDMDL
MODEL 2
REMARK VINA RESULT:      -8.5      2.300      6.992
REMARK  16 active torsions:
REMARK  status: ('A' for Active; 'I' for Inactive)
REMARK    1  A    between atoms: C_6  and  C_7 
REMARK    2  A    between atoms: C_7  and  C_8 
REMARK    3  A    between atoms: C_8  and  C_9 
REMARK    4  A    between atoms: C_9  and  O_11 
REMARK    5  A    between atoms: C_16  and  C_17 
REMARK    6  A    between atoms: C_17  and  C_18 
REMARK    7  A    between atoms: C_18  and  C_19 
REMARK    8  A    between atoms: C_19  and  O_21 
REMARK    9  A    between atoms: C_28  and  C_29 
REMARK   10  A    between atoms: C_29  and  C_30 
REMARK   11  A    between atoms: C_30  and  C_31 
REMARK   12  A    between atoms: C_31  and  O_33 
REMARK   13  A    between atoms: C_42  and  C_43 
REMARK   14  A    between atoms: C_43  and  C_44 
REMARK   15  A    between atoms: C_44  and  C_45 
REMARK   16  A    between atoms: C_45  and  O_47 
ROOT
HETATM    1  C   UNK     0     -29.555  -5.407  15.456  0.00  0.00     0.051 C 
HETATM    2  C   UNK     0     -29.324  -4.152  14.639  0.00  0.00    -0.031 A 
HETATM    3  C   UNK     0     -28.208  -3.770  13.910  0.00  0.00     0.021 A 
HETATM    4  N   UNK     0     -28.435  -2.552  13.363  0.00  0.00    -0.361 N 
HETATM    5  C   UNK     0     -29.674  -2.154  13.720  0.00  0.00     0.022 A 
HETATM    6  C   UNK     0     -30.257  -3.130  14.520  0.00  0.00    -0.027 A 
HETATM    7  C   UNK     0     -30.438  -0.935  13.306  0.00  0.00     0.115 C 
HETATM    8  C   UNK     0     -30.360  -0.547  11.840  0.00  0.00     0.021 A 
HETATM    9  N   UNK     0     -30.295  -1.348  10.765  0.00  0.00    -0.361 N 
HETATM   10  C   UNK     0     -30.145  -0.570   9.672  0.00  0.00     0.022 A 
HETATM   11  C   UNK     0     -30.122   0.768  10.052  0.00  0.00    -0.027 A 
HETATM   12  C   UNK     0     -30.257   0.790  11.416  0.00  0.00    -0.031 A 
HETATM   13  C   UNK     0     -30.291   2.037  12.271  0.00  0.00     0.051 C 
HETATM   14  C   UNK     0     -29.965  -1.058   8.237  0.00  0.00     0.115 C 
HETATM   15  C   UNK     0     -28.726  -1.913   8.028  0.00  0.00     0.021 A 
HETATM   16  N   UNK     0     -28.409  -3.066   8.647  0.00  0.00    -0.361 N 
HETATM   17  C   UNK     0     -27.204  -3.468   8.237  0.00  0.00     0.022 A 
HETATM   18  C   UNK     0     -26.716  -2.538   7.298  0.00  0.00    -0.027 A 
HETATM   19  C   UNK     0     -27.679  -1.569   7.176  0.00  0.00    -0.031 A 
HETATM   20  C   UNK     0     -27.570  -0.387   6.231  0.00  0.00     0.051 C 
HETATM   21  C   UNK     0     -26.373  -4.651   8.677  0.00  0.00     0.115 C 
HETATM   22  C   UNK     0     -26.474  -5.076  10.123  0.00  0.00     0.022 A 
HETATM   23  N   UNK     0     -26.544  -4.301  11.213  0.00  0.00    -0.361 N 
HETATM   24  C   UNK     0     -26.772  -5.092  12.281  0.00  0.00     0.021 A 
HETATM   25  C   UNK     0     -26.839  -6.409  11.871  0.00  0.00    -0.031 A 
HETATM   26  C   UNK     0     -27.036  -7.658  12.704  0.00  0.00     0.051 C 
HETATM   27  C   UNK     0     -26.652  -6.425  10.493  0.00  0.00    -0.027 A 
HETATM   28  C   UNK     0     -27.017  -4.665  13.718  0.00  0.00     0.115 C 
HETATM   29  H   UNK     0     -27.703  -1.964  12.762  0.00  0.00     0.165 HD
HETATM   30  H   UNK     0     -30.405  -2.460  10.770  0.00  0.00     0.165 HD
HETATM   31  H   UNK     0     -29.070  -3.634   9.353  0.00  0.00     0.165 HD
HETATM   32  H   UNK     0     -26.391  -3.191  11.245  0.00  0.00     0.165 HD
ENDROOT
BRANCH   6  33
HETATM   33  C   UNK     0     -31.615  -3.164  15.175  0.00  0.00     0.051 C 
BRANCH  33  34
HETATM   34  C   UNK     0     -32.709  -3.211  14.135  0.00  0.00     0.114 C 
BRANCH  34  35
HETATM   35  C   UNK     0     -32.645  -4.550  13.480  0.00  0.00     0.139 C 
HETATM   36  O   UNK     0     -32.827  -5.601  14.161  0.00  0.00    -0.650 OA
BRANCH  35  37
HETATM   37  O   UNK     0     -32.393  -4.708  12.123  0.00  0.00    -0.776 OA
HETATM   38  H   UNK     0     -33.115  -4.971  11.472  0.00  0.00     0.167 HD
ENDBRANCH  35  37
ENDBRANCH  34  35
ENDBRANCH  33  34
ENDBRANCH   6  33
BRANCH  27  39
HETATM   39  C   UNK     0     -26.588  -7.681   9.698  0.00  0.00     0.051 C 
BRANCH  39  40
HETATM   40  C   UNK     0     -25.277  -8.161   9.262  0.00  0.00     0.114 C 
BRANCH  40  41
HETATM   41  C   UNK     0     -24.761  -7.894   7.938  0.00  0.00     0.139 C 
HETATM   42  O   UNK     0     -23.563  -7.995   7.638  0.00  0.00    -0.650 OA
BRANCH  41  43
HETATM   43  O   UNK     0     -25.663  -7.492   6.912  0.00  0.00    -0.776 OA
HETATM   44  H   UNK     0     -26.594  -7.881   6.998  0.00  0.00     0.167 HD
ENDBRANCH  41  43
ENDBRANCH  40  41
ENDBRANCH  39  40
ENDBRANCH  27  39
BRANCH  11  45
HETATM   45  C   UNK     0     -29.983   1.991   9.185  0.00  0.00     0.051 C 
BRANCH  45  46
HETATM   46  C   UNK     0     -31.217   2.350   8.441  0.00  0.00     0.114 C 
BRANCH  46  47
HETATM   47  C   UNK     0     -32.059   3.176   9.354  0.00  0.00     0.139 C 
HETATM   48  O   UNK     0     -31.596   4.242   9.783  0.00  0.00    -0.650 OA
BRANCH  47  49
HETATM   49  O   UNK     0     -33.318   2.765   9.713  0.00  0.00    -0.776 OA
HETATM   50  H   UNK     0     -34.069   2.643   9.024  0.00  0.00     0.167 HD
ENDBRANCH  47  49
ENDBRANCH  46  47
ENDBRANCH  45  46
ENDBRANCH  11  45
BRANCH  18  51
HETATM   51  C   UNK     0     -25.413  -2.580   6.544  0.00  0.00     0.051 C 
BRANCH  51  52
HETATM   52  C   UNK     0     -25.729  -3.175   5.180  0.00  0.00     0.114 C 
BRANCH  52  53
HETATM   53  C   UNK     0     -25.493  -4.631   5.147  0.00  0.00     0.139 C 
HETATM   54  O   UNK     0     -24.432  -5.099   5.590  0.00  0.00    -0.650 OA
BRANCH  53  55
HETATM   55  O   UNK     0     -26.451  -5.463   4.621  0.00  0.00    -0.776 OA
HETATM   56  H   UNK     0     -26.649  -6.389   4.921  0.00  0.00     0.167 HD
ENDBRANCH  53  55
ENDBRANCH  52  53
ENDBRANCH  51  52
ENDBRANCH  18  51
TORSDOF 16
ENDMDL
MODEL 3
REMARK VINA RESULT:      -8.5      2.398      6.592
REMARK  16 active torsions:
REMARK  status: ('A' for Active; 'I' for Inactive)
REMARK    1  A    between atoms: C_6  and  C_7 
REMARK    2  A    between atoms: C_7  and  C_8 
REMARK    3  A    between atoms: C_8  and  C_9 
REMARK    4  A    between atoms: C_9  and  O_11 
REMARK    5  A    between atoms: C_16  and  C_17 
REMARK    6  A    between atoms: C_17  and  C_18 
REMARK    7  A    between atoms: C_18  and  C_19 
REMARK    8  A    between atoms: C_19  and  O_21 
REMARK    9  A    between atoms: C_28  and  C_29 
REMARK   10  A    between atoms: C_29  and  C_30 
REMARK   11  A    between atoms: C_30  and  C_31 
REMARK   12  A    between atoms: C_31  and  O_33 
REMARK   13  A    between atoms: C_42  and  C_43 
REMARK   14  A    between atoms: C_43  and  C_44 
REMARK   15  A    between atoms: C_44  and  C_45 
REMARK   16  A    between atoms: C_45  and  O_47 
ROOT
HETATM    1  C   UNK     0     -25.947  -1.300   3.824  0.00  0.00     0.051 C 
HETATM    2  C   UNK     0     -25.557  -2.167   5.004  0.00  0.00    -0.031 A 
HETATM    3  C   UNK     0     -25.427  -1.826   6.341  0.00  0.00     0.021 A 
HETATM    4  N   UNK     0     -25.027  -2.917   7.037  0.00  0.00    -0.361 N 
HETATM    5  C   UNK     0     -24.908  -3.947   6.174  0.00  0.00     0.022 A 
HETATM    6  C   UNK     0     -25.230  -3.512   4.893  0.00  0.00    -0.027 A 
HETATM    7  C   UNK     0     -24.588  -5.384   6.445  0.00  0.00     0.115 C 
HETATM    8  C   UNK     0     -25.266  -6.018   7.647  0.00  0.00     0.021 A 
HETATM    9  N   UNK     0     -26.502  -5.799   8.122  0.00  0.00    -0.361 N 
HETATM   10  C   UNK     0     -26.645  -6.511   9.260  0.00  0.00     0.022 A 
HETATM   11  C   UNK     0     -25.473  -7.214   9.521  0.00  0.00    -0.027 A 
HETATM   12  C   UNK     0     -24.600  -6.909   8.508  0.00  0.00    -0.031 A 
HETATM   13  C   UNK     0     -23.194  -7.450   8.372  0.00  0.00     0.051 C 
HETATM   14  C   UNK     0     -27.869  -6.515  10.173  0.00  0.00     0.115 C 
HETATM   15  C   UNK     0     -28.202  -5.153  10.761  0.00  0.00     0.021 A 
HETATM   16  N   UNK     0     -28.482  -4.017  10.096  0.00  0.00    -0.361 N 
HETATM   17  C   UNK     0     -28.650  -3.025  10.973  0.00  0.00     0.022 A 
HETATM   18  C   UNK     0     -28.481  -3.542  12.273  0.00  0.00    -0.027 A 
HETATM   19  C   UNK     0     -28.202  -4.876  12.127  0.00  0.00    -0.031 A 
HETATM   20  C   UNK     0     -27.983  -5.825  13.291  0.00  0.00     0.051 C 
HETATM   21  C   UNK     0     -28.907  -1.554  10.739  0.00  0.00     0.115 C 
HETATM   22  C   UNK     0     -28.275  -0.920   9.522  0.00  0.00     0.022 A 
HETATM   23  N   UNK     0     -27.049  -1.122   9.024  0.00  0.00    -0.361 N 
HETATM   24  C   UNK     0     -26.955  -0.465   7.850  0.00  0.00     0.021 A 
HETATM   25  C   UNK     0     -28.147   0.184   7.591  0.00  0.00    -0.031 A 
HETATM   26  C   UNK     0     -28.512   1.076   6.424  0.00  0.00     0.051 C 
HETATM   27  C   UNK     0     -29.008  -0.092   8.648  0.00  0.00    -0.027 A 
HETATM   28  C   UNK     0     -25.792  -0.469   6.873  0.00  0.00     0.115 C 
HETATM   29  H   UNK     0     -24.794  -2.941   8.127  0.00  0.00     0.165 HD
HETATM   30  H   UNK     0     -27.293  -5.183   7.630  0.00  0.00     0.165 HD
HETATM   31  H   UNK     0     -28.611  -3.922   8.986  0.00  0.00     0.165 HD
HETATM   32  H   UNK     0     -26.222  -1.695   9.518  0.00  0.00     0.165 HD
ENDROOT
BRANCH   6  33
HETATM   33  C   UNK     0     -25.246  -4.267   3.587  0.00  0.00     0.051 C 
BRANCH  33  34
HETATM   34  C   UNK     0     -26.603  -4.884   3.344  0.00  0.00     0.114 C 
BRANCH  34  35
HETATM   35  C   UNK     0     -26.626  -5.369   1.934  0.00  0.00     0.139 C 
HETATM   36  O   UNK     0     -26.248  -4.611   0.993  0.00  0.00    -0.650 OA
BRANCH  35  37
HETATM   37  O   UNK     0     -27.050  -6.646   1.587  0.00  0.00    -0.776 OA
HETATM   38  H   UNK     0     -27.952  -6.815   1.172  0.00  0.00     0.167 HD
ENDBRANCH  35  37
ENDBRANCH  34  35
ENDBRANCH  33  34
ENDBRANCH   6  33
BRANCH  27  39
HETATM   39  C   UNK     0     -30.371   0.495   8.757  0.00  0.00     0.051 C 
BRANCH  39  40
HETATM   40  C   UNK     0     -30.598   1.540   9.756  0.00  0.00     0.114 C 
BRANCH  40  41
HETATM   41  C   UNK     0     -30.395   2.941   9.465  0.00  0.00     0.139 C 
HETATM   42  O   UNK     0     -29.308   3.414   9.105  0.00  0.00    -0.650 OA
BRANCH  41  43
HETATM   43  O   UNK     0     -31.492   3.840   9.594  0.00  0.00    -0.776 OA
HETATM   44  H   UNK     0     -31.433   4.660   9.003  0.00  0.00     0.167 HD
ENDBRANCH  41  43
ENDBRANCH  40  41
ENDBRANCH  39  40
ENDBRANCH  27  39
BRANCH  11  45
HETATM   45  C   UNK     0     -25.166  -8.143  10.665  0.00  0.00     0.051 C 
BRANCH  45  46
HETATM   46  C   UNK     0     -25.059  -7.466  11.983  0.00  0.00     0.114 C 
BRANCH  46  47
HETATM   47  C   UNK     0     -25.371  -8.482  13.028  0.00  0.00     0.139 C 
HETATM   48  O   UNK     0     -26.520  -8.945  13.080  0.00  0.00    -0.650 OA
BRANCH  47  49
HETATM   49  O   UNK     0     -24.410  -8.896  13.915  0.00  0.00    -0.776 OA
HETATM   50  H   UNK     0     -23.490  -9.231  13.604  0.00  0.00     0.167 HD
ENDBRANCH  47  49
ENDBRANCH  46  47
ENDBRANCH  45  46
ENDBRANCH  11  45
BRANCH  18  51
HETATM   51  C   UNK     0     -28.599  -2.809  13.584  0.00  0.00     0.051 C 
BRANCH  51  52
HETATM   52  C   UNK     0     -30.036  -2.996  14.049  0.00  0.00     0.114 C 
BRANCH  52  53
HETATM   53  C   UNK     0     -30.110  -3.735  15.324  0.00  0.00     0.139 C 
HETATM   54  O   UNK     0     -30.780  -4.777  15.401  0.00  0.00    -0.650 OA
BRANCH  53  55
HETATM   55  O   UNK     0     -29.436  -3.261  16.423  0.00  0.00    -0.776 OA
HETATM   56  H   UNK     0     -28.896  -2.429  16.464  0.00  0.00     0.167 HD
ENDBRANCH  53  55
ENDBRANCH  52  53
ENDBRANCH  51  52
ENDBRANCH  18  51
TORSDOF 16
ENDMDL
MODEL 4
REMARK VINA RESULT:      -8.4      1.507      1.758
REMARK  16 active torsions:
REMARK  status: ('A' for Active; 'I' for Inactive)
REMARK    1  A    between atoms: C_6  and  C_7 
REMARK    2  A    between atoms: C_7  and  C_8 
REMARK    3  A    between atoms: C_8  and  C_9 
REMARK    4  A    between atoms: C_9  and  O_11 
REMARK    5  A    between atoms: C_16  and  C_17 
REMARK    6  A    between atoms: C_17  and  C_18 
REMARK    7  A    between atoms: C_18  and  C_19 
REMARK    8  A    between atoms: C_19  and  O_21 
REMARK    9  A    between atoms: C_28  and  C_29 
REMARK   10  A    between atoms: C_29  and  C_30 
REMARK   11  A    between atoms: C_30  and  C_31 
REMARK   12  A    between atoms: C_31  and  O_33 
REMARK   13  A    between atoms: C_42  and  C_43 
REMARK   14  A    between atoms: C_43  and  C_44 
REMARK   15  A    between atoms: C_44  and  C_45 
REMARK   16  A    between atoms: C_45  and  O_47 
ROOT
HETATM    1  C   UNK     0     -24.471  -6.584   8.241  0.00  0.00     0.051 C 
HETATM    2  C   UNK     0     -25.276  -5.761   9.225  0.00  0.00    -0.031 A 
HETATM    3  C   UNK     0     -25.329  -4.385   9.385  0.00  0.00     0.021 A 
HETATM    4  N   UNK     0     -26.162  -4.092  10.411  0.00  0.00    -0.361 N 
HETATM    5  C   UNK     0     -26.648  -5.250  10.903  0.00  0.00     0.022 A 
HETATM    6  C   UNK     0     -26.112  -6.314  10.186  0.00  0.00    -0.027 A 
HETATM    7  C   UNK     0     -27.672  -5.475  11.972  0.00  0.00     0.115 C 
HETATM    8  C   UNK     0     -28.892  -4.572  11.949  0.00  0.00     0.021 A 
HETATM    9  N   UNK     0     -29.544  -4.074  10.886  0.00  0.00    -0.361 N 
HETATM   10  C   UNK     0     -30.510  -3.247  11.337  0.00  0.00     0.022 A 
HETATM   11  C   UNK     0     -30.487  -3.219  12.729  0.00  0.00    -0.027 A 
HETATM   12  C   UNK     0     -29.470  -4.051  13.120  0.00  0.00    -0.031 A 
HETATM   13  C   UNK     0     -29.076  -4.336  14.552  0.00  0.00     0.051 C 
HETATM   14  C   UNK     0     -31.456  -2.413  10.478  0.00  0.00     0.115 C 
HETATM   15  C   UNK     0     -30.750  -1.405   9.586  0.00  0.00     0.021 A 
HETATM   16  N   UNK     0     -29.824  -1.652   8.640  0.00  0.00    -0.361 N 
HETATM   17  C   UNK     0     -29.399  -0.494   8.130  0.00  0.00     0.022 A 
HETATM   18  C   UNK     0     -30.088   0.558   8.767  0.00  0.00    -0.027 A 
HETATM   19  C   UNK     0     -30.932  -0.027   9.675  0.00  0.00    -0.031 A 
HETATM   20  C   UNK     0     -31.892   0.751  10.557  0.00  0.00     0.051 C 
HETATM   21  C   UNK     0     -28.325  -0.220   7.102  0.00  0.00     0.115 C 
HETATM   22  C   UNK     0     -27.126  -1.139   7.085  0.00  0.00     0.022 A 
HETATM   23  N   UNK     0     -26.459  -1.653   8.127  0.00  0.00    -0.361 N 
HETATM   24  C   UNK     0     -25.553  -2.533   7.657  0.00  0.00     0.021 A 
HETATM   25  C   UNK     0     -25.630  -2.579   6.278  0.00  0.00    -0.031 A 
HETATM   26  C   UNK     0     -24.794  -3.382   5.303  0.00  0.00     0.051 C 
HETATM   27  C   UNK     0     -26.630  -1.695   5.889  0.00  0.00    -0.027 A 
HETATM   28  C   UNK     0     -24.627  -3.432   8.459  0.00  0.00     0.115 C 
HETATM   29  H   UNK     0     -26.370  -3.071  10.807  0.00  0.00     0.165 HD
HETATM   30  H   UNK     0     -29.356  -4.344   9.818  0.00  0.00     0.165 HD
HETATM   31  H   UNK     0     -29.498  -2.666   8.291  0.00  0.00     0.165 HD
HETATM   32  H   UNK     0     -26.594  -1.366   9.202  0.00  0.00     0.165 HD
ENDROOT
BRANCH   6  33
HETATM   33  C   UNK     0     -26.329  -7.798  10.344  0.00  0.00     0.051 C 
BRANCH  33  34
HETATM   34  C   UNK     0     -25.204  -8.422  11.135  0.00  0.00     0.114 C 
BRANCH  34  35
HETATM   35  C   UNK     0     -25.553  -8.300  12.579  0.00  0.00     0.139 C 
HETATM   36  O   UNK     0     -24.765  -7.713  13.377  0.00  0.00    -0.650 OA
BRANCH  35  37
HETATM   37  O   UNK     0     -26.731  -8.809  13.112  0.00  0.00    -0.776 OA
HETATM   38  H   UNK     0     -27.319  -9.445  12.597  0.00  0.00     0.167 HD
ENDBRANCH  35  37
ENDBRANCH  34  35
ENDBRANCH  33  34
ENDBRANCH   6  33
BRANCH  27  39
HETATM   39  C   UNK     0     -26.957  -1.419   4.464  0.00  0.00     0.051 C 
BRANCH  39  40
HETATM   40  C   UNK     0     -26.595  -0.115   3.909  0.00  0.00     0.114 C 
BRANCH  40  41
HETATM   41  C   UNK     0     -26.732   0.188   2.502  0.00  0.00     0.139 C 
HETATM   42  O   UNK     0     -27.599  -0.314   1.775  0.00  0.00    -0.650 OA
BRANCH  41  43
HETATM   43  O   UNK     0     -25.828   1.112   1.903  0.00  0.00    -0.776 OA
HETATM   44  H   UNK     0     -25.622   0.925   0.929  0.00  0.00     0.167 HD
ENDBRANCH  41  43
ENDBRANCH  40  41
ENDBRANCH  39  40
ENDBRANCH  27  39
BRANCH  11  45
HETATM   45  C   UNK     0     -31.376  -2.451  13.670  0.00  0.00     0.051 C 
BRANCH  45  46
HETATM   46  C   UNK     0     -32.682  -3.104  13.939  0.00  0.00     0.114 C 
BRANCH  46  47
HETATM   47  C   UNK     0     -32.551  -3.838  15.230  0.00  0.00     0.139 C 
HETATM   48  O   UNK     0     -32.560  -5.076  15.211  0.00  0.00    -0.650 OA
BRANCH  47  49
HETATM   49  O   UNK     0     -32.424  -3.157  16.415  0.00  0.00    -0.776 OA
HETATM   50  H   UNK     0     -32.166  -3.629  17.290  0.00  0.00     0.167 HD
ENDBRANCH  47  49
ENDBRANCH  46  47
ENDBRANCH  45  46
ENDBRANCH  11  45
BRANCH  18  51
HETATM   51  C   UNK     0     -29.965   2.037   8.509  0.00  0.00     0.051 C 
BRANCH  51  52
HETATM   52  C   UNK     0     -28.819   2.527   9.382  0.00  0.00     0.114 C 
BRANCH  52  53
HETATM   53  C   UNK     0     -29.294   3.400  10.473  0.00  0.00     0.139 C 
HETATM   54  O   UNK     0     -29.087   3.085  11.655  0.00  0.00    -0.650 OA
BRANCH  53  55
HETATM   55  O   UNK     0     -29.968   4.559  10.172  0.00  0.00    -0.776 OA
HETATM   56  H   UNK     0     -29.682   5.246   9.515  0.00  0.00     0.167 HD
ENDBRANCH  53  55
ENDBRANCH  52  53
ENDBRANCH  51  52
ENDBRANCH  18  51
TORSDOF 16
ENDMDL
MODEL 5
REMARK VINA RESULT:      -8.2      2.637      9.513
REMARK  16 active torsions:
REMARK  status: ('A' for Active; 'I' for Inactive)
REMARK    1  A    between atoms: C_6  and  C_7 
REMARK    2  A    between atoms: C_7  and  C_8 
REMARK    3  A    between atoms: C_8  and  C_9 
REMARK    4  A    between atoms: C_9  and  O_11 
REMARK    5  A    between atoms: C_16  and  C_17 
REMARK    6  A    between atoms: C_17  and  C_18 
REMARK    7  A    between atoms: C_18  and  C_19 
REMARK    8  A    between atoms: C_19  and  O_21 
REMARK    9  A    between atoms: C_28  and  C_29 
REMARK   10  A    between atoms: C_29  and  C_30 
REMARK   11  A    between atoms: C_30  and  C_31 
REMARK   12  A    between atoms: C_31  and  O_33 
REMARK   13  A    between atoms: C_42  and  C_43 
REMARK   14  A    between atoms: C_43  and  C_44 
REMARK   15  A    between atoms: C_44  and  C_45 
REMARK   16  A    between atoms: C_45  and  O_47 
ROOT
HETATM    1  C   UNK     0     -30.213   1.940  12.592  0.00  0.00     0.051 C 
HETATM    2  C   UNK     0     -29.112   1.316  11.758  0.00  0.00    -0.031 A 
HETATM    3  C   UNK     0     -28.044   0.529  12.159  0.00  0.00     0.021 A 
HETATM    4  N   UNK     0     -27.293   0.220  11.075  0.00  0.00    -0.361 N 
HETATM    5  C   UNK     0     -27.863   0.786   9.992  0.00  0.00     0.022 A 
HETATM    6  C   UNK     0     -29.002   1.482  10.384  0.00  0.00    -0.027 A 
HETATM    7  C   UNK     0     -27.484   0.673   8.548  0.00  0.00     0.115 C 
HETATM    8  C   UNK     0     -27.096  -0.708   8.051  0.00  0.00     0.021 A 
HETATM    9  N   UNK     0     -27.596  -1.899   8.415  0.00  0.00    -0.361 N 
HETATM   10  C   UNK     0     -26.889  -2.861   7.785  0.00  0.00     0.022 A 
HETATM   11  C   UNK     0     -25.912  -2.273   6.987  0.00  0.00    -0.027 A 
HETATM   12  C   UNK     0     -26.036  -0.917   7.150  0.00  0.00    -0.031 A 
HETATM   13  C   UNK     0     -25.182   0.128   6.468  0.00  0.00     0.051 C 
HETATM   14  C   UNK     0     -27.069  -4.367   7.951  0.00  0.00     0.115 C 
HETATM   15  C   UNK     0     -26.836  -4.863   9.369  0.00  0.00     0.021 A 
HETATM   16  N   UNK     0     -27.482  -4.484  10.488  0.00  0.00    -0.361 N 
HETATM   17  C   UNK     0     -26.935  -5.099  11.539  0.00  0.00     0.022 A 
HETATM   18  C   UNK     0     -25.890  -5.926  11.082  0.00  0.00    -0.027 A 
HETATM   19  C   UNK     0     -25.839  -5.770   9.721  0.00  0.00    -0.031 A 
HETATM   20  C   UNK     0     -24.870  -6.515   8.822  0.00  0.00     0.051 C 
HETATM   21  C   UNK     0     -27.243  -4.963  13.013  0.00  0.00     0.115 C 
HETATM   22  C   UNK     0     -27.674  -3.605  13.513  0.00  0.00     0.022 A 
HETATM   23  N   UNK     0     -27.196  -2.403  13.166  0.00  0.00    -0.361 N 
HETATM   24  C   UNK     0     -27.966  -1.458  13.744  0.00  0.00     0.021 A 
HETATM   25  C   UNK     0     -28.957  -2.067  14.490  0.00  0.00    -0.031 A 
HETATM   26  C   UNK     0     -30.031  -1.431  15.347  0.00  0.00     0.051 C 
HETATM   27  C   UNK     0     -28.791  -3.441  14.358  0.00  0.00    -0.027 A 
HETATM   28  C   UNK     0     -27.874   0.048  13.572  0.00  0.00     0.115 C 
HETATM   29  H   UNK     0     -26.343  -0.363  11.090  0.00  0.00     0.165 HD
HETATM   30  H   UNK     0     -28.482  -2.063   9.077  0.00  0.00     0.165 HD
HETATM   31  H   UNK     0     -28.372  -3.805  10.533  0.00  0.00     0.165 HD
HETATM   32  H   UNK     0     -26.284  -2.209  12.544  0.00  0.00     0.165 HD
ENDROOT
BRANCH   6  33
HETATM   33  C   UNK     0     -29.980   2.284   9.562  0.00  0.00     0.051 C 
BRANCH  33  34
HETATM   34  C   UNK     0     -30.645   1.413   8.522  0.00  0.00     0.114 C 
BRANCH  34  35
HETATM   35  C   UNK     0     -31.165   0.202   9.220  0.00  0.00     0.139 C 
HETATM   36  O   UNK     0     -30.668  -0.936   8.977  0.00  0.00    -0.650 OA
BRANCH  35  37
HETATM   37  O   UNK     0     -32.194   0.259  10.152  0.00  0.00    -0.776 OA
HETATM   38  H   UNK     0     -33.159   0.132   9.892  0.00  0.00     0.167 HD
ENDBRANCH  35  37
ENDBRANCH  34  35
ENDBRANCH  33  34
ENDBRANCH   6  33
BRANCH  27  39
HETATM   39  C   UNK     0     -29.634  -4.432  15.080  0.00  0.00     0.051 C 
BRANCH  39  40
HETATM   40  C   UNK     0     -30.887  -4.860  14.459  0.00  0.00     0.114 C 
BRANCH  40  41
HETATM   41  C   UNK     0     -32.171  -4.348  14.882  0.00  0.00     0.139 C 
HETATM   42  O   UNK     0     -32.713  -4.660  15.951  0.00  0.00    -0.650 OA
BRANCH  41  43
HETATM   43  O   UNK     0     -32.864  -3.435  14.037  0.00  0.00    -0.776 OA
HETATM   44  H   UNK     0     -32.804  -3.651  13.049  0.00  0.00     0.167 HD
ENDBRANCH  41  43
ENDBRANCH  40  41
ENDBRANCH  39  40
ENDBRANCH  27  39
BRANCH  11  45
HETATM   45  C   UNK     0     -24.895  -2.939   6.099  0.00  0.00     0.051 C 
BRANCH  45  46
HETATM   46  C   UNK     0     -23.731  -3.505   6.828  0.00  0.00     0.114 C 
BRANCH  46  47
HETATM   47  C   UNK     0     -23.233  -4.663   6.033  0.00  0.00     0.139 C 
HETATM   48  O   UNK     0     -23.644  -4.806   4.873  0.00  0.00    -0.650 OA
BRANCH  47  49
HETATM   49  O   UNK     0     -22.339  -5.554   6.572  0.00  0.00    -0.776 OA
HETATM   50  H   UNK     0     -22.307  -6.538   6.282  0.00  0.00     0.167 HD
ENDBRANCH  47  49
ENDBRANCH  46  47
ENDBRANCH  45  46
ENDBRANCH  11  45
BRANCH  18  51
HETATM   51  C   UNK     0     -25.002  -6.831  11.895  0.00  0.00     0.051 C 
BRANCH  51  52
HETATM   52  C   UNK     0     -25.533  -8.243  11.694  0.00  0.00     0.114 C 
BRANCH  52  53
HETATM   53  C   UNK     0     -25.874  -8.890  12.976  0.00  0.00     0.139 C 
HETATM   54  O   UNK     0     -27.031  -8.820  13.419  0.00  0.00    -0.650 OA
BRANCH  53  55
HETATM   55  O   UNK     0     -24.903  -9.565  13.675  0.00  0.00    -0.776 OA
HETATM   56  H   UNK     0     -23.957  -9.681  13.397  0.00  0.00     0.167 HD
ENDBRANCH  53  55
ENDBRANCH  52  53
ENDBRANCH  51  52
ENDBRANCH  18  51
TORSDOF 16
ENDMDL
MODEL 6
REMARK VINA RESULT:      -8.0      2.260      7.576
REMARK  16 active torsions:
REMARK  status: ('A' for Active; 'I' for Inactive)
REMARK    1  A    between atoms: C_6  and  C_7 
REMARK    2  A    between atoms: C_7  and  C_8 
REMARK    3  A    between atoms: C_8  and  C_9 
REMARK    4  A    between atoms: C_9  and  O_11 
REMARK    5  A    between atoms: C_16  and  C_17 
REMARK    6  A    between atoms: C_17  and  C_18 
REMARK    7  A    between atoms: C_18  and  C_19 
REMARK    8  A    between atoms: C_19  and  O_21 
REMARK    9  A    between atoms: C_28  and  C_29 
REMARK   10  A    between atoms: C_29  and  C_30 
REMARK   11  A    between atoms: C_30  and  C_31 
REMARK   12  A    between atoms: C_31  and  O_33 
REMARK   13  A    between atoms: C_42  and  C_43 
REMARK   14  A    between atoms: C_43  and  C_44 
REMARK   15  A    between atoms: C_44  and  C_45 
REMARK   16  A    between atoms: C_45  and  O_47 
ROOT
HETATM    1  C   UNK     0     -24.407  -4.066   6.203  0.00  0.00     0.051 C 
HETATM    2  C   UNK     0     -25.598  -3.383   6.842  0.00  0.00    -0.031 A 
HETATM    3  C   UNK     0     -26.587  -3.916   7.653  0.00  0.00     0.021 A 
HETATM    4  N   UNK     0     -27.472  -2.941   7.969  0.00  0.00    -0.361 N 
HETATM    5  C   UNK     0     -27.063  -1.796   7.384  0.00  0.00     0.022 A 
HETATM    6  C   UNK     0     -25.895  -2.037   6.669  0.00  0.00    -0.027 A 
HETATM    7  C   UNK     0     -27.632  -0.415   7.493  0.00  0.00     0.115 C 
HETATM    8  C   UNK     0     -28.058   0.039   8.878  0.00  0.00     0.021 A 
HETATM    9  N   UNK     0     -27.491  -0.242  10.062  0.00  0.00    -0.361 N 
HETATM   10  C   UNK     0     -28.259   0.296  11.033  0.00  0.00     0.022 A 
HETATM   11  C   UNK     0     -29.346   0.949  10.458  0.00  0.00    -0.027 A 
HETATM   12  C   UNK     0     -29.225   0.791   9.101  0.00  0.00    -0.031 A 
HETATM   13  C   UNK     0     -30.184   1.341   8.069  0.00  0.00     0.051 C 
HETATM   14  C   UNK     0     -28.030   0.171  12.536  0.00  0.00     0.115 C 
HETATM   15  C   UNK     0     -28.060  -1.260  13.047  0.00  0.00     0.021 A 
HETATM   16  N   UNK     0     -27.276  -2.286  12.664  0.00  0.00    -0.361 N 
HETATM   17  C   UNK     0     -27.664  -3.395  13.297  0.00  0.00     0.022 A 
HETATM   18  C   UNK     0     -28.746  -3.075  14.141  0.00  0.00    -0.027 A 
HETATM   19  C   UNK     0     -28.983  -1.735  13.976  0.00  0.00    -0.031 A 
HETATM   20  C   UNK     0     -30.051  -0.967  14.734  0.00  0.00     0.051 C 
HETATM   21  C   UNK     0     -27.163  -4.815  13.166  0.00  0.00     0.115 C 
HETATM   22  C   UNK     0     -26.694  -5.266  11.803  0.00  0.00     0.022 A 
HETATM   23  N   UNK     0     -27.236  -4.999  10.608  0.00  0.00    -0.361 N 
HETATM   24  C   UNK     0     -26.414  -5.477   9.653  0.00  0.00     0.021 A 
HETATM   25  C   UNK     0     -25.320  -6.076  10.248  0.00  0.00    -0.031 A 
HETATM   26  C   UNK     0     -24.151  -6.787   9.597  0.00  0.00     0.051 C 
HETATM   27  C   UNK     0     -25.477  -5.954  11.623  0.00  0.00    -0.027 A 
HETATM   28  C   UNK     0     -26.556  -5.335   8.147  0.00  0.00     0.115 C 
HETATM   29  H   UNK     0     -28.400  -3.077   8.571  0.00  0.00     0.165 HD
HETATM   30  H   UNK     0     -26.522  -0.777  10.213  0.00  0.00     0.165 HD
HETATM   31  H   UNK     0     -26.401  -2.217  11.967  0.00  0.00     0.165 HD
HETATM   32  H   UNK     0     -28.228  -4.507  10.429  0.00  0.00     0.165 HD
ENDROOT
BRANCH   6  33
HETATM   33  C   UNK     0     -25.053  -1.099   5.841  0.00  0.00     0.051 C 
BRANCH  33  34
HETATM   34  C   UNK     0     -25.522  -1.084   4.406  0.00  0.00     0.114 C 
BRANCH  34  35
HETATM   35  C   UNK     0     -25.667   0.343   3.998  0.00  0.00     0.139 C 
HETATM   36  O   UNK     0     -24.648   1.019   3.673  0.00  0.00    -0.650 OA
BRANCH  35  37
HETATM   37  O   UNK     0     -26.897   0.987   3.953  0.00  0.00    -0.776 OA
HETATM   38  H   UNK     0     -26.998   1.963   4.182  0.00  0.00     0.167 HD
ENDBRANCH  35  37
ENDBRANCH  34  35
ENDBRANCH  33  34
ENDBRANCH   6  33
BRANCH  27  39
HETATM   39  C   UNK     0     -24.525  -6.546  12.603  0.00  0.00     0.051 C 
BRANCH  39  40
HETATM   40  C   UNK     0     -24.814  -7.878  13.133  0.00  0.00     0.114 C 
BRANCH  40  41
HETATM   41  C   UNK     0     -25.938  -8.663  12.675  0.00  0.00     0.139 C 
HETATM   42  O   UNK     0     -26.999  -8.769  13.304  0.00  0.00    -0.650 OA
BRANCH  41  43
HETATM   43  O   UNK     0     -25.837  -9.357  11.436  0.00  0.00    -0.776 OA
HETATM   44  H   UNK     0     -26.437  -8.997  10.703  0.00  0.00     0.167 HD
ENDBRANCH  41  43
ENDBRANCH  40  41
ENDBRANCH  39  40
ENDBRANCH  27  39
BRANCH  11  45
HETATM   45  C   UNK     0     -30.461   1.698  11.138  0.00  0.00     0.051 C 
BRANCH  45  46
HETATM   46  C   UNK     0     -31.708   0.910  11.303  0.00  0.00     0.114 C 
BRANCH  46  47
HETATM   47  C   UNK     0     -32.848   1.813  10.976  0.00  0.00     0.139 C 
HETATM   48  O   UNK     0     -32.692   2.669  10.094  0.00  0.00    -0.650 OA
BRANCH  47  49
HETATM   49  O   UNK     0     -34.045   1.702  11.637  0.00  0.00    -0.776 OA
HETATM   50  H   UNK     0     -34.269   2.275  12.460  0.00  0.00     0.167 HD
ENDBRANCH  47  49
ENDBRANCH  46  47
ENDBRANCH  45  46
ENDBRANCH  11  45
BRANCH  18  51
HETATM   51  C   UNK     0     -29.499  -3.991  15.070  0.00  0.00     0.051 C 
BRANCH  51  52
HETATM   52  C   UNK     0     -30.577  -4.659  14.229  0.00  0.00     0.114 C 
BRANCH  52  53
HETATM   53  C   UNK     0     -31.933  -4.269  14.663  0.00  0.00     0.139 C 
HETATM   54  O   UNK     0     -32.501  -3.300  14.134  0.00  0.00    -0.650 OA
BRANCH  53  55
HETATM   55  O   UNK     0     -32.559  -4.981  15.657  0.00  0.00    -0.776 OA
HETATM   56  H   UNK     0     -32.601  -5.971  15.728  0.00  0.00     0.167 HD
ENDBRANCH  53  55
ENDBRANCH  52  53
ENDBRANCH  51  52
ENDBRANCH  18  51
TORSDOF 16
ENDMDL
MODEL 7
REMARK VINA RESULT:      -8.0      2.691      9.801
REMARK  16 active torsions:
REMARK  status: ('A' for Active; 'I' for Inactive)
REMARK    1  A    between atoms: C_6  and  C_7 
REMARK    2  A    between atoms: C_7  and  C_8 
REMARK    3  A    between atoms: C_8  and  C_9 
REMARK    4  A    between atoms: C_9  and  O_11 
REMARK    5  A    between atoms: C_16  and  C_17 
REMARK    6  A    between atoms: C_17  and  C_18 
REMARK    7  A    between atoms: C_18  and  C_19 
REMARK    8  A    between atoms: C_19  and  O_21 
REMARK    9  A    between atoms: C_28  and  C_29 
REMARK   10  A    between atoms: C_29  and  C_30 
REMARK   11  A    between atoms: C_30  and  C_31 
REMARK   12  A    between atoms: C_31  and  O_33 
REMARK   13  A    between atoms: C_42  and  C_43 
REMARK   14  A    between atoms: C_43  and  C_44 
REMARK   15  A    between atoms: C_44  and  C_45 
REMARK   16  A    between atoms: C_45  and  O_47 
ROOT
HETATM    1  C   UNK     0     -32.480   1.738  11.985  0.00  0.00     0.051 C 
HETATM    2  C   UNK     0     -31.179   1.241  11.388  0.00  0.00    -0.031 A 
HETATM    3  C   UNK     0     -30.095   0.646  12.013  0.00  0.00     0.021 A 
HETATM    4  N   UNK     0     -29.137   0.393  11.089  0.00  0.00    -0.361 N 
HETATM    5  C   UNK     0     -29.592   0.806   9.888  0.00  0.00     0.022 A 
HETATM    6  C   UNK     0     -30.865   1.344  10.039  0.00  0.00    -0.027 A 
HETATM    7  C   UNK     0     -28.964   0.672   8.535  0.00  0.00     0.115 C 
HETATM    8  C   UNK     0     -28.310  -0.661   8.217  0.00  0.00     0.021 A 
HETATM    9  N   UNK     0     -28.694  -1.891   8.590  0.00  0.00    -0.361 N 
HETATM   10  C   UNK     0     -27.765  -2.770   8.158  0.00  0.00     0.022 A 
HETATM   11  C   UNK     0     -26.759  -2.087   7.480  0.00  0.00    -0.027 A 
HETATM   12  C   UNK     0     -27.097  -0.758   7.513  0.00  0.00    -0.031 A 
HETATM   13  C   UNK     0     -26.293   0.363   6.893  0.00  0.00     0.051 C 
HETATM   14  C   UNK     0     -27.759  -4.274   8.413  0.00  0.00     0.115 C 
HETATM   15  C   UNK     0     -27.700  -4.650   9.884  0.00  0.00     0.021 A 
HETATM   16  N   UNK     0     -28.570  -4.310  10.854  0.00  0.00    -0.361 N 
HETATM   17  C   UNK     0     -28.127  -4.777  12.024  0.00  0.00     0.022 A 
HETATM   18  C   UNK     0     -26.915  -5.462  11.804  0.00  0.00    -0.027 A 
HETATM   19  C   UNK     0     -26.660  -5.376  10.460  0.00  0.00    -0.031 A 
HETATM   20  C   UNK     0     -25.460  -6.016   9.787  0.00  0.00     0.051 C 
HETATM   21  C   UNK     0     -28.693  -4.608  13.415  0.00  0.00     0.115 C 
HETATM   22  C   UNK     0     -29.386  -3.303  13.732  0.00  0.00     0.022 A 
HETATM   23  N   UNK     0     -29.029  -2.064  13.370  0.00  0.00    -0.361 N 
HETATM   24  C   UNK     0     -30.007  -1.215  13.743  0.00  0.00     0.021 A 
HETATM   25  C   UNK     0     -31.015  -1.923  14.369  0.00  0.00    -0.031 A 
HETATM   26  C   UNK     0     -32.296  -1.409  14.993  0.00  0.00     0.051 C 
HETATM   27  C   UNK     0     -30.640  -3.262  14.375  0.00  0.00    -0.027 A 
HETATM   28  C   UNK     0     -30.098   0.276  13.469  0.00  0.00     0.115 C 
HETATM   29  H   UNK     0     -28.131  -0.039  11.299  0.00  0.00     0.165 HD
HETATM   30  H   UNK     0     -29.646  -2.149   9.115  0.00  0.00     0.165 HD
HETATM   31  H   UNK     0     -29.541  -3.771  10.704  0.00  0.00     0.165 HD
HETATM   32  H   UNK     0     -28.061  -1.771  12.886  0.00  0.00     0.165 HD
ENDROOT
BRANCH   6  33
HETATM   33  C   UNK     0     -31.793   1.944   9.013  0.00  0.00     0.051 C 
BRANCH  33  34
HETATM   34  C   UNK     0     -31.993   3.419   9.269  0.00  0.00     0.114 C 
BRANCH  34  35
HETATM   35  C   UNK     0     -33.330   3.789   8.721  0.00  0.00     0.139 C 
HETATM   36  O   UNK     0     -34.365   3.685   9.441  0.00  0.00    -0.650 OA
BRANCH  35  37
HETATM   37  O   UNK     0     -33.504   4.260   7.425  0.00  0.00    -0.776 OA
HETATM   38  H   UNK     0     -32.919   4.981   7.035  0.00  0.00     0.167 HD
ENDBRANCH  35  37
ENDBRANCH  34  35
ENDBRANCH  33  34
ENDBRANCH   6  33
BRANCH  27  39
HETATM   39  C   UNK     0     -31.446  -4.327  15.031  0.00  0.00     0.051 C 
BRANCH  39  40
HETATM   40  C   UNK     0     -32.114  -5.314  14.183  0.00  0.00     0.114 C 
BRANCH  40  41
HETATM   41  C   UNK     0     -32.852  -4.938  12.998  0.00  0.00     0.139 C 
HETATM   42  O   UNK     0     -32.372  -4.260  12.080  0.00  0.00    -0.650 OA
BRANCH  41  43
HETATM   43  O   UNK     0     -34.204  -5.362  12.863  0.00  0.00    -0.776 OA
HETATM   44  H   UNK     0     -34.767  -4.781  12.254  0.00  0.00     0.167 HD
ENDBRANCH  41  43
ENDBRANCH  40  41
ENDBRANCH  39  40
ENDBRANCH  27  39
BRANCH  11  45
HETATM   45  C   UNK     0     -25.526  -2.641   6.819  0.00  0.00     0.051 C 
BRANCH  45  46
HETATM   46  C   UNK     0     -24.252  -2.129   7.385  0.00  0.00     0.114 C 
BRANCH  46  47
HETATM   47  C   UNK     0     -23.309  -3.282   7.466  0.00  0.00     0.139 C 
HETATM   48  O   UNK     0     -23.186  -3.872   8.548  0.00  0.00    -0.650 OA
BRANCH  47  49
HETATM   49  O   UNK     0     -22.592  -3.681   6.366  0.00  0.00    -0.776 OA
HETATM   50  H   UNK     0     -22.779  -3.307   5.428  0.00  0.00     0.167 HD
ENDBRANCH  47  49
ENDBRANCH  46  47
ENDBRANCH  45  46
ENDBRANCH  11  45
BRANCH  18  51
HETATM   51  C   UNK     0     -26.059  -6.178  12.816  0.00  0.00     0.051 C 
BRANCH  51  52
HETATM   52  C   UNK     0     -26.746  -7.507  13.092  0.00  0.00     0.114 C 
BRANCH  52  53
HETATM   53  C   UNK     0     -25.990  -8.643  12.529  0.00  0.00     0.139 C 
HETATM   54  O   UNK     0     -25.881  -8.768  11.299  0.00  0.00    -0.650 OA
BRANCH  53  55
HETATM   55  O   UNK     0     -25.412  -9.560  13.373  0.00  0.00    -0.776 OA
HETATM   56  H   UNK     0     -24.577 -10.068  13.200  0.00  0.00     0.167 HD
ENDBRANCH  53  55
ENDBRANCH  52  53
ENDBRANCH  51  52
ENDBRANCH  18  51
TORSDOF 16
ENDMDL
MODEL 8
REMARK VINA RESULT:      -8.0      3.135      8.511
REMARK  16 active torsions:
REMARK  status: ('A' for Active; 'I' for Inactive)
REMARK    1  A    between atoms: C_6  and  C_7 
REMARK    2  A    between atoms: C_7  and  C_8 
REMARK    3  A    between atoms: C_8  and  C_9 
REMARK    4  A    between atoms: C_9  and  O_11 
REMARK    5  A    between atoms: C_16  and  C_17 
REMARK    6  A    between atoms: C_17  and  C_18 
REMARK    7  A    between atoms: C_18  and  C_19 
REMARK    8  A    between atoms: C_19  and  O_21 
REMARK    9  A    between atoms: C_28  and  C_29 
REMARK   10  A    between atoms: C_29  and  C_30 
REMARK   11  A    between atoms: C_30  and  C_31 
REMARK   12  A    between atoms: C_31  and  O_33 
REMARK   13  A    between atoms: C_42  and  C_43 
REMARK   14  A    between atoms: C_43  and  C_44 
REMARK   15  A    between atoms: C_44  and  C_45 
REMARK   16  A    between atoms: C_45  and  O_47 
ROOT
HETATM    1  C   UNK     0     -25.028  -1.966  17.441  0.00  0.00     0.051 C 
HETATM    2  C   UNK     0     -25.404  -1.475  16.057  0.00  0.00    -0.031 A 
HETATM    3  C   UNK     0     -24.722  -1.616  14.859  0.00  0.00     0.021 A 
HETATM    4  N   UNK     0     -25.418  -0.990  13.879  0.00  0.00    -0.361 N 
HETATM    5  C   UNK     0     -26.532  -0.461  14.426  0.00  0.00     0.022 A 
HETATM    6  C   UNK     0     -26.553  -0.743  15.788  0.00  0.00    -0.027 A 
HETATM    7  C   UNK     0     -27.674   0.246  13.765  0.00  0.00     0.115 C 
HETATM    8  C   UNK     0     -28.177  -0.346  12.460  0.00  0.00     0.021 A 
HETATM    9  N   UNK     0     -28.263  -1.637  12.106  0.00  0.00    -0.361 N 
HETATM   10  C   UNK     0     -28.680  -1.693  10.823  0.00  0.00     0.022 A 
HETATM   11  C   UNK     0     -28.878  -0.402  10.341  0.00  0.00    -0.027 A 
HETATM   12  C   UNK     0     -28.563   0.451  11.368  0.00  0.00    -0.031 A 
HETATM   13  C   UNK     0     -28.635   1.961  11.303  0.00  0.00     0.051 C 
HETATM   14  C   UNK     0     -28.857  -2.957   9.987  0.00  0.00     0.115 C 
HETATM   15  C   UNK     0     -27.577  -3.757   9.801  0.00  0.00     0.021 A 
HETATM   16  N   UNK     0     -26.794  -4.287  10.759  0.00  0.00    -0.361 N 
HETATM   17  C   UNK     0     -25.727  -4.852  10.189  0.00  0.00     0.022 A 
HETATM   18  C   UNK     0     -25.825  -4.691   8.793  0.00  0.00    -0.027 A 
HETATM   19  C   UNK     0     -26.989  -4.004   8.563  0.00  0.00    -0.031 A 
HETATM   20  C   UNK     0     -27.499  -3.649   7.178  0.00  0.00     0.051 C 
HETATM   21  C   UNK     0     -24.524  -5.515  10.822  0.00  0.00     0.115 C 
HETATM   22  C   UNK     0     -24.039  -4.964  12.143  0.00  0.00     0.022 A 
HETATM   23  N   UNK     0     -23.947  -3.684  12.525  0.00  0.00    -0.361 N 
HETATM   24  C   UNK     0     -23.605  -3.654  13.829  0.00  0.00     0.021 A 
HETATM   25  C   UNK     0     -23.463  -4.947  14.295  0.00  0.00    -0.031 A 
HETATM   26  C   UNK     0     -23.053  -5.424  15.673  0.00  0.00     0.051 C 
HETATM   27  C   UNK     0     -23.736  -5.803  13.234  0.00  0.00    -0.027 A 
HETATM   28  C   UNK     0     -23.471  -2.437  14.727  0.00  0.00     0.115 C 
HETATM   29  H   UNK     0     -25.097  -0.892  12.816  0.00  0.00     0.165 HD
HETATM   30  H   UNK     0     -28.077  -2.513  12.774  0.00  0.00     0.165 HD
HETATM   31  H   UNK     0     -27.021  -4.305  11.857  0.00  0.00     0.165 HD
HETATM   32  H   UNK     0     -24.081  -2.787  11.865  0.00  0.00     0.165 HD
ENDROOT
BRANCH   6  33
HETATM   33  C   UNK     0     -27.569  -0.373  16.839  0.00  0.00     0.051 C 
BRANCH  33  34
HETATM   34  C   UNK     0     -28.601  -1.465  16.994  0.00  0.00     0.114 C 
BRANCH  34  35
HETATM   35  C   UNK     0     -28.945  -1.551  18.443  0.00  0.00     0.139 C 
HETATM   36  O   UNK     0     -29.762  -0.731  18.953  0.00  0.00    -0.650 OA
BRANCH  35  37
HETATM   37  O   UNK     0     -28.403  -2.514  19.286  0.00  0.00    -0.776 OA
HETATM   38  H   UNK     0     -28.969  -3.034  19.937  0.00  0.00     0.167 HD
ENDBRANCH  35  37
ENDBRANCH  34  35
ENDBRANCH  33  34
ENDBRANCH   6  33
BRANCH  27  39
HETATM   39  C   UNK     0     -23.615  -7.283  13.335  0.00  0.00     0.051 C 
BRANCH  39  40
HETATM   40  C   UNK     0     -24.822  -8.061  13.614  0.00  0.00     0.114 C 
BRANCH  40  41
HETATM   41  C   UNK     0     -25.905  -8.171  12.662  0.00  0.00     0.139 C 
HETATM   42  O   UNK     0     -26.894  -7.426  12.662  0.00  0.00    -0.650 OA
BRANCH  41  43
HETATM   43  O   UNK     0     -25.847  -9.184  11.664  0.00  0.00    -0.776 OA
HETATM   44  H   UNK     0     -26.068 -10.114  11.998  0.00  0.00     0.167 HD
ENDBRANCH  41  43
ENDBRANCH  40  41
ENDBRANCH  39  40
ENDBRANCH  27  39
BRANCH  11  45
HETATM   45  C   UNK     0     -29.345   0.033   8.978  0.00  0.00     0.051 C 
BRANCH  45  46
HETATM   46  C   UNK     0     -28.369  -0.230   7.890  0.00  0.00     0.114 C 
BRANCH  46  47
HETATM   47  C   UNK     0     -27.503   0.978   7.772  0.00  0.00     0.139 C 
HETATM   48  O   UNK     0     -26.288   0.820   7.583  0.00  0.00    -0.650 OA
BRANCH  47  49
HETATM   49  O   UNK     0     -28.037   2.237   7.871  0.00  0.00    -0.776 OA
HETATM   50  H   UNK     0     -28.281   2.657   8.776  0.00  0.00     0.167 HD
ENDBRANCH  47  49
ENDBRANCH  46  47
ENDBRANCH  45  46
ENDBRANCH  11  45
BRANCH  18  51
HETATM   51  C   UNK     0     -24.872  -5.183   7.735  0.00  0.00     0.051 C 
BRANCH  51  52
HETATM   52  C   UNK     0     -25.390  -6.544   7.294  0.00  0.00     0.114 C 
BRANCH  52  53
HETATM   53  C   UNK     0     -24.636  -7.648   7.918  0.00  0.00     0.139 C 
HETATM   54  O   UNK     0     -23.472  -7.886   7.558  0.00  0.00    -0.650 OA
BRANCH  53  55
HETATM   55  O   UNK     0     -25.229  -8.410   8.894  0.00  0.00    -0.776 OA
HETATM   56  H   UNK     0     -25.772  -8.069   9.652  0.00  0.00     0.167 HD
ENDBRANCH  53  55
ENDBRANCH  52  53
ENDBRANCH  51  52
ENDBRANCH  18  51
TORSDOF 16
ENDMDL
MODEL 9
REMARK VINA RESULT:      -8.0      1.992      7.636
REMARK  16 active torsions:
REMARK  status: ('A' for Active; 'I' for Inactive)
REMARK    1  A    between atoms: C_6  and  C_7 
REMARK    2  A    between atoms: C_7  and  C_8 
REMARK    3  A    between atoms: C_8  and  C_9 
REMARK    4  A    between atoms: C_9  and  O_11 
REMARK    5  A    between atoms: C_16  and  C_17 
REMARK    6  A    between atoms: C_17  and  C_18 
REMARK    7  A    between atoms: C_18  and  C_19 
REMARK    8  A    between atoms: C_19  and  O_21 
REMARK    9  A    between atoms: C_28  and  C_29 
REMARK   10  A    between atoms: C_29  and  C_30 
REMARK   11  A    between atoms: C_30  and  C_31 
REMARK   12  A    between atoms: C_31  and  O_33 
REMARK   13  A    between atoms: C_42  and  C_43 
REMARK   14  A    between atoms: C_43  and  C_44 
REMARK   15  A    between atoms: C_44  and  C_45 
REMARK   16  A    between atoms: C_45  and  O_47 
ROOT
HETATM    1  C   UNK     0     -25.240  -8.059  10.783  0.00  0.00     0.051 C 
HETATM    2  C   UNK     0     -25.739  -7.192   9.645  0.00  0.00    -0.031 A 
HETATM    3  C   UNK     0     -26.974  -6.585   9.478  0.00  0.00     0.021 A 
HETATM    4  N   UNK     0     -26.987  -5.930   8.293  0.00  0.00    -0.361 N 
HETATM    5  C   UNK     0     -25.784  -6.100   7.705  0.00  0.00     0.022 A 
HETATM    6  C   UNK     0     -24.980  -6.887   8.523  0.00  0.00    -0.027 A 
HETATM    7  C   UNK     0     -25.254  -5.510   6.436  0.00  0.00     0.115 C 
HETATM    8  C   UNK     0     -25.554  -4.042   6.188  0.00  0.00     0.021 A 
HETATM    9  N   UNK     0     -25.628  -3.042   7.080  0.00  0.00    -0.361 N 
HETATM   10  C   UNK     0     -26.011  -1.925   6.426  0.00  0.00     0.022 A 
HETATM   11  C   UNK     0     -26.180  -2.211   5.075  0.00  0.00    -0.027 A 
HETATM   12  C   UNK     0     -25.894  -3.544   4.918  0.00  0.00    -0.031 A 
HETATM   13  C   UNK     0     -25.939  -4.299   3.609  0.00  0.00     0.051 C 
HETATM   14  C   UNK     0     -26.284  -0.562   7.055  0.00  0.00     0.115 C 
HETATM   15  C   UNK     0     -27.405  -0.570   8.082  0.00  0.00     0.021 A 
HETATM   16  N   UNK     0     -27.481  -1.302   9.209  0.00  0.00    -0.361 N 
HETATM   17  C   UNK     0     -28.656  -1.075   9.801  0.00  0.00     0.022 A 
HETATM   18  C   UNK     0     -29.376  -0.144   9.027  0.00  0.00    -0.027 A 
HETATM   19  C   UNK     0     -28.581   0.166   7.954  0.00  0.00    -0.031 A 
HETATM   20  C   UNK     0     -28.964   1.169   6.882  0.00  0.00     0.051 C 
HETATM   21  C   UNK     0     -29.255  -1.697  11.042  0.00  0.00     0.115 C 
HETATM   22  C   UNK     0     -28.928  -3.145  11.324  0.00  0.00     0.022 A 
HETATM   23  N   UNK     0     -28.844  -4.161  10.455  0.00  0.00    -0.361 N 
HETATM   24  C   UNK     0     -28.386  -5.245  11.114  0.00  0.00     0.021 A 
HETATM   25  C   UNK     0     -28.179  -4.921  12.441  0.00  0.00    -0.031 A 
HETATM   26  C   UNK     0     -27.712  -5.807  13.577  0.00  0.00     0.051 C 
HETATM   27  C   UNK     0     -28.520  -3.583  12.600  0.00  0.00    -0.027 A 
HETATM   28  C   UNK     0     -28.040  -6.606  10.537  0.00  0.00     0.115 C 
HETATM   29  H   UNK     0     -27.859  -5.386   7.861  0.00  0.00     0.165 HD
HETATM   30  H   UNK     0     -25.361  -3.110   8.163  0.00  0.00     0.165 HD
HETATM   31  H   UNK     0     -26.670  -1.957   9.621  0.00  0.00     0.165 HD
HETATM   32  H   UNK     0     -29.149  -4.135   9.377  0.00  0.00     0.165 HD
ENDROOT
BRANCH   6  33
HETATM   33  C   UNK     0     -23.565  -7.366   8.320  0.00  0.00     0.051 C 
BRANCH  33  34
HETATM   34  C   UNK     0     -22.637  -6.202   8.065  0.00  0.00     0.114 C 
BRANCH  34  35
HETATM   35  C   UNK     0     -22.733  -5.289   9.239  0.00  0.00     0.139 C 
HETATM   36  O   UNK     0     -22.421  -5.702  10.394  0.00  0.00    -0.650 OA
BRANCH  35  37
HETATM   37  O   UNK     0     -23.156  -3.970   9.130  0.00  0.00    -0.776 OA
HETATM   38  H   UNK     0     -23.064  -3.314   9.890  0.00  0.00     0.167 HD
ENDBRANCH  35  37
ENDBRANCH  34  35
ENDBRANCH  33  34
ENDBRANCH   6  33
BRANCH  27  39
HETATM   39  C   UNK     0     -28.495  -2.890  13.917  0.00  0.00     0.051 C 
BRANCH  39  40
HETATM   40  C   UNK     0     -29.722  -2.870  14.714  0.00  0.00     0.114 C 
BRANCH  40  41
HETATM   41  C   UNK     0     -30.181  -4.026  15.451  0.00  0.00     0.139 C 
HETATM   42  O   UNK     0     -30.836  -4.945  14.942  0.00  0.00    -0.650 OA
BRANCH  41  43
HETATM   43  O   UNK     0     -29.873  -4.129  16.837  0.00  0.00    -0.776 OA
HETATM   44  H   UNK     0     -30.502  -3.618  17.445  0.00  0.00     0.167 HD
ENDBRANCH  41  43
ENDBRANCH  40  41
ENDBRANCH  39  40
ENDBRANCH  27  39
BRANCH  11  45
HETATM   45  C   UNK     0     -26.590  -1.287   3.960  0.00  0.00     0.051 C 
BRANCH  45  46
HETATM   46  C   UNK     0     -25.509  -0.381   3.495  0.00  0.00     0.114 C 
BRANCH  46  47
HETATM   47  C   UNK     0     -26.163   0.835   2.933  0.00  0.00     0.139 C 
HETATM   48  O   UNK     0     -27.318   0.738   2.495  0.00  0.00    -0.650 OA
BRANCH  47  49
HETATM   49  O   UNK     0     -25.501   2.037   2.898  0.00  0.00    -0.776 OA
HETATM   50  H   UNK     0     -25.570   2.674   2.096  0.00  0.00     0.167 HD
ENDBRANCH  47  49
ENDBRANCH  46  47
ENDBRANCH  45  46
ENDBRANCH  11  45
BRANCH  18  51
HETATM   51  C   UNK     0     -30.738   0.436   9.307  0.00  0.00     0.051 C 
BRANCH  51  52
HETATM   52  C   UNK     0     -30.511   1.647  10.200  0.00  0.00     0.114 C 
BRANCH  52  53
HETATM   53  C   UNK     0     -30.597   2.911   9.444  0.00  0.00     0.139 C 
HETATM   54  O   UNK     0     -29.579   3.597   9.260  0.00  0.00    -0.650 OA
BRANCH  53  55
HETATM   55  O   UNK     0     -31.810   3.326   8.950  0.00  0.00    -0.776 OA
HETATM   56  H   UNK     0     -31.988   3.638   8.024  0.00  0.00     0.167 HD
ENDBRANCH  53  55
ENDBRANCH  52  53
ENDBRANCH  51  52
ENDBRANCH  18  51
TORSDOF 16
ENDMDL
MODEL 10
REMARK VINA RESULT:      -7.9     34.103     38.177
REMARK  16 active torsions:
REMARK  status: ('A' for Active; 'I' for Inactive)
REMARK    1  A    between atoms: C_6  and  C_7 
REMARK    2  A    between atoms: C_7  and  C_8 
REMARK    3  A    between atoms: C_8  and  C_9 
REMARK    4  A    between atoms: C_9  and  O_11 
REMARK    5  A    between atoms: C_16  and  C_17 
REMARK    6  A    between atoms: C_17  and  C_18 
REMARK    7  A    between atoms: C_18  and  C_19 
REMARK    8  A    between atoms: C_19  and  O_21 
REMARK    9  A    between atoms: C_28  and  C_29 
REMARK   10  A    between atoms: C_29  and  C_30 
REMARK   11  A    between atoms: C_30  and  C_31 
REMARK   12  A    between atoms: C_31  and  O_33 
REMARK   13  A    between atoms: C_42  and  C_43 
REMARK   14  A    between atoms: C_43  and  C_44 
REMARK   15  A    between atoms: C_44  and  C_45 
REMARK   16  A    between atoms: C_45  and  O_47 
ROOT
HETATM    1  C   UNK     0       9.980   3.796  10.346  0.00  0.00     0.051 C 
HETATM    2  C   UNK     0      10.443   3.875   8.905  0.00  0.00    -0.031 A 
HETATM    3  C   UNK     0      10.370   2.920   7.904  0.00  0.00     0.021 A 
HETATM    4  N   UNK     0      10.937   3.416   6.779  0.00  0.00    -0.361 N 
HETATM    5  C   UNK     0      11.362   4.669   7.038  0.00  0.00     0.022 A 
HETATM    6  C   UNK     0      11.071   4.988   8.361  0.00  0.00    -0.027 A 
HETATM    7  C   UNK     0      11.967   5.680   6.115  0.00  0.00     0.115 C 
HETATM    8  C   UNK     0      11.340   5.806   4.738  0.00  0.00     0.021 A 
HETATM    9  N   UNK     0      10.048   5.692   4.393  0.00  0.00    -0.361 N 
HETATM   10  C   UNK     0       9.963   5.787   3.049  0.00  0.00     0.022 A 
HETATM   11  C   UNK     0      11.233   5.977   2.514  0.00  0.00    -0.027 A 
HETATM   12  C   UNK     0      12.106   5.991   3.573  0.00  0.00    -0.031 A 
HETATM   13  C   UNK     0      13.603   6.178   3.469  0.00  0.00     0.051 C 
HETATM   14  C   UNK     0       8.692   5.649   2.215  0.00  0.00     0.115 C 
HETATM   15  C   UNK     0       8.011   4.296   2.350  0.00  0.00     0.021 A 
HETATM   16  N   UNK     0       7.548   3.718   3.474  0.00  0.00    -0.361 N 
HETATM   17  C   UNK     0       7.083   2.502   3.181  0.00  0.00     0.022 A 
HETATM   18  C   UNK     0       7.242   2.280   1.799  0.00  0.00    -0.027 A 
HETATM   19  C   UNK     0       7.824   3.412   1.290  0.00  0.00    -0.031 A 
HETATM   20  C   UNK     0       8.140   3.609  -0.182  0.00  0.00     0.051 C 
HETATM   21  C   UNK     0       6.527   1.429   4.091  0.00  0.00     0.115 C 
HETATM   22  C   UNK     0       7.111   1.321   5.480  0.00  0.00     0.022 A 
HETATM   23  N   UNK     0       8.392   1.435   5.852  0.00  0.00    -0.361 N 
HETATM   24  C   UNK     0       8.445   1.415   7.199  0.00  0.00     0.021 A 
HETATM   25  C   UNK     0       7.167   1.275   7.706  0.00  0.00    -0.031 A 
HETATM   26  C   UNK     0       6.721   1.162   9.149  0.00  0.00     0.051 C 
HETATM   27  C   UNK     0       6.296   1.212   6.625  0.00  0.00    -0.027 A 
HETATM   28  C   UNK     0       9.664   1.605   8.085  0.00  0.00     0.115 C 
HETATM   29  H   UNK     0      11.069   2.862   5.820  0.00  0.00     0.165 HD
HETATM   30  H   UNK     0       9.189   5.593   5.100  0.00  0.00     0.165 HD
HETATM   31  H   UNK     0       7.503   4.197   4.487  0.00  0.00     0.165 HD
HETATM   32  H   UNK     0       9.277   1.487   5.166  0.00  0.00     0.165 HD
ENDROOT
BRANCH   6  33
HETATM   33  C   UNK     0      11.343   6.252   9.137  0.00  0.00     0.051 C 
BRANCH  33  34
HETATM   34  C   UNK     0      10.062   7.012   9.388  0.00  0.00     0.114 C 
BRANCH  34  35
HETATM   35  C   UNK     0      10.052   8.186   8.469  0.00  0.00     0.139 C 
HETATM   36  O   UNK     0      10.442   9.318   8.877  0.00  0.00    -0.650 OA
BRANCH  35  37
HETATM   37  O   UNK     0       9.627   8.100   7.148  0.00  0.00    -0.776 OA
HETATM   38  H   UNK     0       9.320   7.232   6.741  0.00  0.00     0.167 HD
ENDBRANCH  35  37
ENDBRANCH  34  35
ENDBRANCH  33  34
ENDBRANCH   6  33
BRANCH  27  39
HETATM   39  C   UNK     0       4.832   0.989   6.775  0.00  0.00     0.051 C 
BRANCH  39  40
HETATM   40  C   UNK     0       3.947   2.153   6.752  0.00  0.00     0.114 C 
BRANCH  40  41
HETATM   41  C   UNK     0       4.453   3.507   6.788  0.00  0.00     0.139 C 
HETATM   42  O   UNK     0       4.530   4.181   7.823  0.00  0.00    -0.650 OA
BRANCH  41  43
HETATM   43  O   UNK     0       4.891   4.113   5.576  0.00  0.00    -0.776 OA
HETATM   44  H   UNK     0       4.153   4.287   4.904  0.00  0.00     0.167 HD
ENDBRANCH  41  43
ENDBRANCH  40  41
ENDBRANCH  39  40
ENDBRANCH  27  39
BRANCH  11  45
HETATM   45  C   UNK     0      11.633   6.145   1.073  0.00  0.00     0.051 C 
BRANCH  45  46
HETATM   46  C   UNK     0      11.621   7.553   0.600  0.00  0.00     0.114 C 
BRANCH  46  47
HETATM   47  C   UNK     0      10.361   7.749  -0.172  0.00  0.00     0.139 C 
HETATM   48  O   UNK     0      10.261   7.216  -1.286  0.00  0.00    -0.650 OA
BRANCH  47  49
HETATM   49  O   UNK     0       9.335   8.504   0.337  0.00  0.00    -0.776 OA
HETATM   50  H   UNK     0       8.946   9.307  -0.171  0.00  0.00     0.167 HD
ENDBRANCH  47  49
ENDBRANCH  46  47
ENDBRANCH  45  46
ENDBRANCH  11  45
BRANCH  18  51
HETATM   51  C   UNK     0       6.843   1.064   1.004  0.00  0.00     0.051 C 
BRANCH  51  52
HETATM   52  C   UNK     0       5.436   1.333   0.492  0.00  0.00     0.114 C 
BRANCH  52  53
HETATM   53  C   UNK     0       4.428   0.526   1.205  0.00  0.00     0.139 C 
HETATM   54  O   UNK     0       3.284   0.974   1.381  0.00  0.00    -0.650 OA
BRANCH  53  55
HETATM   55  O   UNK     0       4.764  -0.721   1.674  0.00  0.00    -0.776 OA
HETATM   56  H   UNK     0       4.364  -1.176   2.461  0.00  0.00     0.167 HD
ENDBRANCH  53  55
ENDBRANCH  52  53
ENDBRANCH  51  52
ENDBRANCH  18  51
TORSDOF 16
ENDMDL
MODEL 11
REMARK VINA RESULT:      -7.9      3.584      8.393
REMARK  16 active torsions:
REMARK  status: ('A' for Active; 'I' for Inactive)
REMARK    1  A    between atoms: C_6  and  C_7 
REMARK    2  A    between atoms: C_7  and  C_8 
REMARK    3  A    between atoms: C_8  and  C_9 
REMARK    4  A    between atoms: C_9  and  O_11 
REMARK    5  A    between atoms: C_16  and  C_17 
REMARK    6  A    between atoms: C_17  and  C_18 
REMARK    7  A    between atoms: C_18  and  C_19 
REMARK    8  A    between atoms: C_19  and  O_21 
REMARK    9  A    between atoms: C_28  and  C_29 
REMARK   10  A    between atoms: C_29  and  C_30 
REMARK   11  A    between atoms: C_30  and  C_31 
REMARK   12  A    between atoms: C_31  and  O_33 
REMARK   13  A    between atoms: C_42  and  C_43 
REMARK   14  A    between atoms: C_43  and  C_44 
REMARK   15  A    between atoms: C_44  and  C_45 
REMARK   16  A    between atoms: C_45  and  O_47 
ROOT
HETATM    1  C   UNK     0     -25.849  -1.061  17.193  0.00  0.00     0.051 C 
HETATM    2  C   UNK     0     -26.227  -0.548  15.818  0.00  0.00    -0.031 A 
HETATM    3  C   UNK     0     -25.548  -0.669  14.616  0.00  0.00     0.021 A 
HETATM    4  N   UNK     0     -26.245  -0.028  13.649  0.00  0.00    -0.361 N 
HETATM    5  C   UNK     0     -27.358   0.493  14.206  0.00  0.00     0.022 A 
HETATM    6  C   UNK     0     -27.377   0.188  15.563  0.00  0.00    -0.027 A 
HETATM    7  C   UNK     0     -28.501   1.210  13.558  0.00  0.00     0.115 C 
HETATM    8  C   UNK     0     -29.007   0.640  12.245  0.00  0.00     0.021 A 
HETATM    9  N   UNK     0     -29.093  -0.646  11.869  0.00  0.00    -0.361 N 
HETATM   10  C   UNK     0     -29.512  -0.681  10.586  0.00  0.00     0.022 A 
HETATM   11  C   UNK     0     -29.710   0.617  10.126  0.00  0.00    -0.027 A 
HETATM   12  C   UNK     0     -29.394   1.454  11.166  0.00  0.00    -0.031 A 
HETATM   13  C   UNK     0     -29.466   2.964  11.125  0.00  0.00     0.051 C 
HETATM   14  C   UNK     0     -29.690  -1.931   9.730  0.00  0.00     0.115 C 
HETATM   15  C   UNK     0     -28.411  -2.728   9.530  0.00  0.00     0.021 A 
HETATM   16  N   UNK     0     -27.626  -3.274  10.477  0.00  0.00    -0.361 N 
HETATM   17  C   UNK     0     -26.560  -3.830   9.897  0.00  0.00     0.022 A 
HETATM   18  C   UNK     0     -26.660  -3.646   8.504  0.00  0.00    -0.027 A 
HETATM   19  C   UNK     0     -27.824  -2.956   8.286  0.00  0.00    -0.031 A 
HETATM   20  C   UNK     0     -28.337  -2.578   6.909  0.00  0.00     0.051 C 
HETATM   21  C   UNK     0     -25.356  -4.502  10.517  0.00  0.00     0.115 C 
HETATM   22  C   UNK     0     -24.869  -3.973  11.845  0.00  0.00     0.022 A 
HETATM   23  N   UNK     0     -24.776  -2.699  12.248  0.00  0.00    -0.361 N 
HETATM   24  C   UNK     0     -24.432  -2.691  13.552  0.00  0.00     0.021 A 
HETATM   25  C   UNK     0     -24.290  -3.991  13.997  0.00  0.00    -0.031 A 
HETATM   26  C   UNK     0     -23.877  -4.490  15.366  0.00  0.00     0.051 C 
HETATM   27  C   UNK     0     -24.564  -4.830  12.923  0.00  0.00    -0.027 A 
HETATM   28  C   UNK     0     -24.297  -1.488  14.469  0.00  0.00     0.115 C 
HETATM   29  H   UNK     0     -25.925   0.087  12.587  0.00  0.00     0.165 HD
HETATM   30  H   UNK     0     -28.906  -1.533  12.523  0.00  0.00     0.165 HD
HETATM   31  H   UNK     0     -27.852  -3.309  11.575  0.00  0.00     0.165 HD
HETATM   32  H   UNK     0     -24.911  -1.792  11.603  0.00  0.00     0.165 HD
ENDROOT
BRANCH   6  33
HETATM   33  C   UNK     0     -28.391   0.541  16.622  0.00  0.00     0.051 C 
BRANCH  33  34
HETATM   34  C   UNK     0     -28.228   1.977  17.061  0.00  0.00     0.114 C 
BRANCH  34  35
HETATM   35  C   UNK     0     -29.539   2.657  16.858  0.00  0.00     0.139 C 
HETATM   36  O   UNK     0     -29.694   3.862  17.215  0.00  0.00    -0.650 OA
BRANCH  35  37
HETATM   37  O   UNK     0     -30.631   2.022  16.280  0.00  0.00    -0.776 OA
HETATM   38  H   UNK     0     -31.037   2.338  15.414  0.00  0.00     0.167 HD
ENDBRANCH  35  37
ENDBRANCH  34  35
ENDBRANCH  33  34
ENDBRANCH   6  33
BRANCH  27  39
HETATM   39  C   UNK     0     -24.443  -6.311  12.999  0.00  0.00     0.051 C 
BRANCH  39  40
HETATM   40  C   UNK     0     -25.668  -7.109  12.979  0.00  0.00     0.114 C 
BRANCH  40  41
HETATM   41  C   UNK     0     -25.713  -8.438  12.411  0.00  0.00     0.139 C 
HETATM   42  O   UNK     0     -25.854  -8.660  11.201  0.00  0.00    -0.650 OA
BRANCH  41  43
HETATM   43  O   UNK     0     -25.590  -9.563  13.275  0.00  0.00    -0.776 OA
HETATM   44  H   UNK     0     -24.940  -9.434  14.042  0.00  0.00     0.167 HD
ENDBRANCH  41  43
ENDBRANCH  40  41
ENDBRANCH  39  40
ENDBRANCH  27  39
BRANCH  11  45
HETATM   45  C   UNK     0     -30.179   1.075   8.771  0.00  0.00     0.051 C 
BRANCH  45  46
HETATM   46  C   UNK     0     -29.284   0.679   7.654  0.00  0.00     0.114 C 
BRANCH  46  47
HETATM   47  C   UNK     0     -27.948   1.285   7.924  0.00  0.00     0.139 C 
HETATM   48  O   UNK     0     -26.966   0.535   8.015  0.00  0.00    -0.650 OA
BRANCH  47  49
HETATM   49  O   UNK     0     -27.808   2.642   8.069  0.00  0.00    -0.776 OA
HETATM   50  H   UNK     0     -27.064   3.055   8.645  0.00  0.00     0.167 HD
ENDBRANCH  47  49
ENDBRANCH  46  47
ENDBRANCH  45  46
ENDBRANCH  11  45
BRANCH  18  51
HETATM   51  C   UNK     0     -25.709  -4.121   7.436  0.00  0.00     0.051 C 
BRANCH  51  52
HETATM   52  C   UNK     0     -24.785  -2.949   7.137  0.00  0.00     0.114 C 
BRANCH  52  53
HETATM   53  C   UNK     0     -23.363  -3.332   7.234  0.00  0.00     0.139 C 
HETATM   54  O   UNK     0     -22.784  -3.827   6.254  0.00  0.00    -0.650 OA
BRANCH  53  55
HETATM   55  O   UNK     0     -22.687  -3.141   8.415  0.00  0.00    -0.776 OA
HETATM   56  H   UNK     0     -23.096  -3.071   9.317  0.00  0.00     0.167 HD
ENDBRANCH  53  55
ENDBRANCH  52  53
ENDBRANCH  51  52
ENDBRANCH  18  51
TORSDOF 16
ENDMDL
MODEL 12
REMARK VINA RESULT:      -7.9     33.916     38.046
REMARK  16 active torsions:
REMARK  status: ('A' for Active; 'I' for Inactive)
REMARK    1  A    between atoms: C_6  and  C_7 
REMARK    2  A    between atoms: C_7  and  C_8 
REMARK    3  A    between atoms: C_8  and  C_9 
REMARK    4  A    between atoms: C_9  and  O_11 
REMARK    5  A    between atoms: C_16  and  C_17 
REMARK    6  A    between atoms: C_17  and  C_18 
REMARK    7  A    between atoms: C_18  and  C_19 
REMARK    8  A    between atoms: C_19  and  O_21 
REMARK    9  A    between atoms: C_28  and  C_29 
REMARK   10  A    between atoms: C_29  and  C_30 
REMARK   11  A    between atoms: C_30  and  C_31 
REMARK   12  A    between atoms: C_31  and  O_33 
REMARK   13  A    between atoms: C_42  and  C_43 
REMARK   14  A    between atoms: C_43  and  C_44 
REMARK   15  A    between atoms: C_44  and  C_45 
REMARK   16  A    between atoms: C_45  and  O_47 
ROOT
HETATM    1  C   UNK     0       9.499   2.943   9.885  0.00  0.00     0.051 C 
HETATM    2  C   UNK     0       9.931   2.892   8.434  0.00  0.00    -0.031 A 
HETATM    3  C   UNK     0       9.931   1.822   7.553  0.00  0.00     0.021 A 
HETATM    4  N   UNK     0      10.433   2.229   6.363  0.00  0.00    -0.361 N 
HETATM    5  C   UNK     0      10.746   3.537   6.464  0.00  0.00     0.022 A 
HETATM    6  C   UNK     0      10.447   3.983   7.747  0.00  0.00    -0.027 A 
HETATM    7  C   UNK     0      11.243   4.481   5.413  0.00  0.00     0.115 C 
HETATM    8  C   UNK     0      10.587   4.387   4.047  0.00  0.00     0.021 A 
HETATM    9  N   UNK     0       9.306   4.118   3.752  0.00  0.00    -0.361 N 
HETATM   10  C   UNK     0       9.191   4.045   2.409  0.00  0.00     0.022 A 
HETATM   11  C   UNK     0      10.431   4.283   1.823  0.00  0.00    -0.027 A 
HETATM   12  C   UNK     0      11.315   4.499   2.849  0.00  0.00    -0.031 A 
HETATM   13  C   UNK     0      12.787   4.804   2.686  0.00  0.00     0.051 C 
HETATM   14  C   UNK     0       7.927   3.697   1.629  0.00  0.00     0.115 C 
HETATM   15  C   UNK     0       7.373   2.315   1.938  0.00  0.00     0.021 A 
HETATM   16  N   UNK     0       6.981   1.836   3.133  0.00  0.00    -0.361 N 
HETATM   17  C   UNK     0       6.625   0.557   2.997  0.00  0.00     0.022 A 
HETATM   18  C   UNK     0       6.783   0.188   1.647  0.00  0.00    -0.027 A 
HETATM   19  C   UNK     0       7.251   1.298   0.994  0.00  0.00    -0.031 A 
HETATM   20  C   UNK     0       7.526   1.347  -0.498  0.00  0.00     0.051 C 
HETATM   21  C   UNK     0       6.182  -0.445   4.039  0.00  0.00     0.115 C 
HETATM   22  C   UNK     0       6.795  -0.336   5.416  0.00  0.00     0.022 A 
HETATM   23  N   UNK     0       8.066  -0.065   5.740  0.00  0.00    -0.361 N 
HETATM   24  C   UNK     0       8.140   0.080   7.078  0.00  0.00     0.021 A 
HETATM   25  C   UNK     0       6.888  -0.112   7.631  0.00  0.00    -0.031 A 
HETATM   26  C   UNK     0       6.476  -0.092   9.088  0.00  0.00     0.051 C 
HETATM   27  C   UNK     0       6.010  -0.380   6.587  0.00  0.00    -0.027 A 
HETATM   28  C   UNK     0       9.350   0.481   7.904  0.00  0.00     0.115 C 
HETATM   29  H   UNK     0      10.600   1.579   5.473  0.00  0.00     0.165 HD
HETATM   30  H   UNK     0       8.469   4.029   4.487  0.00  0.00     0.165 HD
HETATM   31  H   UNK     0       6.909   2.425   4.084  0.00  0.00     0.165 HD
HETATM   32  H   UNK     0       8.932  -0.017   5.030  0.00  0.00     0.165 HD
ENDROOT
BRANCH   6  33
HETATM   33  C   UNK     0      10.615   5.350   8.363  0.00  0.00     0.051 C 
BRANCH  33  34
HETATM   34  C   UNK     0      11.948   5.461   9.063  0.00  0.00     0.114 C 
BRANCH  34  35
HETATM   35  C   UNK     0      11.904   6.683   9.916  0.00  0.00     0.139 C 
HETATM   36  O   UNK     0      11.394   7.752   9.471  0.00  0.00    -0.650 OA
BRANCH  35  37
HETATM   37  O   UNK     0      12.405   6.711  11.212  0.00  0.00    -0.776 OA
HETATM   38  H   UNK     0      12.360   5.909  11.820  0.00  0.00     0.167 HD
ENDBRANCH  35  37
ENDBRANCH  34  35
ENDBRANCH  33  34
ENDBRANCH   6  33
BRANCH  27  39
HETATM   39  C   UNK     0       4.575  -0.712   6.799  0.00  0.00     0.051 C 
BRANCH  39  40
HETATM   40  C   UNK     0       3.623   0.388   6.951  0.00  0.00     0.114 C 
BRANCH  40  41
HETATM   41  C   UNK     0       3.878   1.707   6.417  0.00  0.00     0.139 C 
HETATM   42  O   UNK     0       4.205   2.676   7.115  0.00  0.00    -0.650 OA
BRANCH  41  43
HETATM   43  O   UNK     0       3.751   1.921   5.015  0.00  0.00    -0.776 OA
HETATM   44  H   UNK     0       3.478   2.861   4.758  0.00  0.00     0.167 HD
ENDBRANCH  41  43
ENDBRANCH  40  41
ENDBRANCH  39  40
ENDBRANCH  27  39
BRANCH  11  45
HETATM   45  C   UNK     0      10.792   4.313   0.362  0.00  0.00     0.051 C 
BRANCH  45  46
HETATM   46  C   UNK     0      10.088   5.365  -0.415  0.00  0.00     0.114 C 
BRANCH  46  47
HETATM   47  C   UNK     0      10.565   6.683   0.095  0.00  0.00     0.139 C 
HETATM   48  O   UNK     0      11.757   6.983  -0.063  0.00  0.00    -0.650 OA
BRANCH  47  49
HETATM   49  O   UNK     0       9.704   7.546   0.725  0.00  0.00    -0.776 OA
HETATM   50  H   UNK     0       9.034   8.124   0.205  0.00  0.00     0.167 HD
ENDBRANCH  47  49
ENDBRANCH  46  47
ENDBRANCH  45  46
ENDBRANCH  11  45
BRANCH  18  51
HETATM   51  C   UNK     0       6.484  -1.144   1.009  0.00  0.00     0.051 C 
BRANCH  51  52
HETATM   52  C   UNK     0       7.824  -1.845   0.837  0.00  0.00     0.114 C 
BRANCH  52  53
HETATM   53  C   UNK     0       8.181  -2.646   2.024  0.00  0.00     0.139 C 
HETATM   54  O   UNK     0       7.668  -3.764   2.196  0.00  0.00    -0.650 OA
BRANCH  53  55
HETATM   55  O   UNK     0       9.080  -2.148   2.935  0.00  0.00    -0.776 OA
HETATM   56  H   UNK     0      10.066  -2.118   2.826  0.00  0.00     0.167 HD
ENDBRANCH  53  55
ENDBRANCH  52  53
ENDBRANCH  51  52
ENDBRANCH  18  51
TORSDOF 16
ENDMDL
MODEL 13
REMARK VINA RESULT:      -7.9      2.629      7.393
REMARK  16 active torsions:
REMARK  status: ('A' for Active; 'I' for Inactive)
REMARK    1  A    between atoms: C_6  and  C_7 
REMARK    2  A    between atoms: C_7  and  C_8 
REMARK    3  A    between atoms: C_8  and  C_9 
REMARK    4  A    between atoms: C_9  and  O_11 
REMARK    5  A    between atoms: C_16  and  C_17 
REMARK    6  A    between atoms: C_17  and  C_18 
REMARK    7  A    between atoms: C_18  and  C_19 
REMARK    8  A    between atoms: C_19  and  O_21 
REMARK    9  A    between atoms: C_28  and  C_29 
REMARK   10  A    between atoms: C_29  and  C_30 
REMARK   11  A    between atoms: C_30  and  C_31 
REMARK   12  A    between atoms: C_31  and  O_33 
REMARK   13  A    between atoms: C_42  and  C_43 
REMARK   14  A    between atoms: C_43  and  C_44 
REMARK   15  A    between atoms: C_44  and  C_45 
REMARK   16  A    between atoms: C_45  and  O_47 
ROOT
HETATM    1  C   UNK     0     -24.990  -7.091  12.621  0.00  0.00     0.051 C 
HETATM    2  C   UNK     0     -25.265  -6.490  11.258  0.00  0.00    -0.031 A 
HETATM    3  C   UNK     0     -26.466  -6.067  10.710  0.00  0.00     0.021 A 
HETATM    4  N   UNK     0     -26.244  -5.625   9.449  0.00  0.00    -0.361 N 
HETATM    5  C   UNK     0     -24.926  -5.751   9.185  0.00  0.00     0.022 A 
HETATM    6  C   UNK     0     -24.285  -6.291  10.294  0.00  0.00    -0.027 A 
HETATM    7  C   UNK     0     -24.153  -5.323   7.976  0.00  0.00     0.115 C 
HETATM    8  C   UNK     0     -24.493  -3.962   7.395  0.00  0.00     0.021 A 
HETATM    9  N   UNK     0     -24.851  -2.843   8.043  0.00  0.00    -0.361 N 
HETATM   10  C   UNK     0     -25.149  -1.902   7.121  0.00  0.00     0.022 A 
HETATM   11  C   UNK     0     -24.969  -2.428   5.845  0.00  0.00    -0.027 A 
HETATM   12  C   UNK     0     -24.556  -3.726   6.010  0.00  0.00    -0.031 A 
HETATM   13  C   UNK     0     -24.231  -4.689   4.891  0.00  0.00     0.051 C 
HETATM   14  C   UNK     0     -25.664  -0.494   7.404  0.00  0.00     0.115 C 
HETATM   15  C   UNK     0     -26.994  -0.461   8.139  0.00  0.00     0.021 A 
HETATM   16  N   UNK     0     -27.282  -0.998   9.339  0.00  0.00    -0.361 N 
HETATM   17  C   UNK     0     -28.578  -0.813   9.602  0.00  0.00     0.022 A 
HETATM   18  C   UNK     0     -29.159  -0.113   8.526  0.00  0.00    -0.027 A 
HETATM   19  C   UNK     0     -28.156   0.102   7.617  0.00  0.00    -0.031 A 
HETATM   20  C   UNK     0     -28.346   0.861   6.316  0.00  0.00     0.051 C 
HETATM   21  C   UNK     0     -29.408  -1.284  10.774  0.00  0.00     0.115 C 
HETATM   22  C   UNK     0     -29.053  -2.617  11.391  0.00  0.00     0.022 A 
HETATM   23  N   UNK     0     -28.689  -3.747  10.771  0.00  0.00    -0.361 N 
HETATM   24  C   UNK     0     -28.322  -4.645  11.708  0.00  0.00     0.021 A 
HETATM   25  C   UNK     0     -28.463  -4.082  12.962  0.00  0.00    -0.031 A 
HETATM   26  C   UNK     0     -28.217  -4.706  14.320  0.00  0.00     0.051 C 
HETATM   27  C   UNK     0     -28.930  -2.785  12.785  0.00  0.00    -0.027 A 
HETATM   28  C   UNK     0     -27.749  -6.034  11.490  0.00  0.00     0.115 C 
HETATM   29  H   UNK     0     -27.025  -5.266   8.740  0.00  0.00     0.165 HD
HETATM   30  H   UNK     0     -24.847  -2.697   9.151  0.00  0.00     0.165 HD
HETATM   31  H   UNK     0     -26.547  -1.476  10.037  0.00  0.00     0.165 HD
HETATM   32  H   UNK     0     -28.729  -3.937   9.667  0.00  0.00     0.165 HD
ENDROOT
BRANCH   6  33
HETATM   33  C   UNK     0     -22.831  -6.630  10.505  0.00  0.00     0.051 C 
BRANCH  33  34
HETATM   34  C   UNK     0     -22.114  -5.500  11.203  0.00  0.00     0.114 C 
BRANCH  34  35
HETATM   35  C   UNK     0     -21.198  -6.108  12.211  0.00  0.00     0.139 C 
HETATM   36  O   UNK     0     -21.583  -6.272  13.405  0.00  0.00    -0.650 OA
BRANCH  35  37
HETATM   37  O   UNK     0     -19.907  -6.518  11.900  0.00  0.00    -0.776 OA
HETATM   38  H   UNK     0     -19.474  -7.308  12.350  0.00  0.00     0.167 HD
ENDBRANCH  35  37
ENDBRANCH  34  35
ENDBRANCH  33  34
ENDBRANCH   6  33
BRANCH  27  39
HETATM   39  C   UNK     0     -29.271  -1.884  13.919  0.00  0.00     0.051 C 
BRANCH  39  40
HETATM   40  C   UNK     0     -30.679  -1.733  14.286  0.00  0.00     0.114 C 
BRANCH  40  41
HETATM   41  C   UNK     0     -31.655  -2.771  14.041  0.00  0.00     0.139 C 
HETATM   42  O   UNK     0     -31.819  -3.745  14.788  0.00  0.00    -0.650 OA
BRANCH  41  43
HETATM   43  O   UNK     0     -32.480  -2.686  12.884  0.00  0.00    -0.776 OA
HETATM   44  H   UNK     0     -32.702  -3.579  12.461  0.00  0.00     0.167 HD
ENDBRANCH  41  43
ENDBRANCH  40  41
ENDBRANCH  39  40
ENDBRANCH  27  39
BRANCH  11  45
HETATM   45  C   UNK     0     -25.168  -1.757   4.513  0.00  0.00     0.051 C 
BRANCH  45  46
HETATM   46  C   UNK     0     -26.590  -1.636   4.101  0.00  0.00     0.114 C 
BRANCH  46  47
HETATM   47  C   UNK     0     -26.915  -2.836   3.279  0.00  0.00     0.139 C 
HETATM   48  O   UNK     0     -26.573  -2.849   2.088  0.00  0.00    -0.650 OA
BRANCH  47  49
HETATM   49  O   UNK     0     -27.579  -3.905   3.826  0.00  0.00    -0.776 OA
HETATM   50  H   UNK     0     -27.574  -4.833   3.387  0.00  0.00     0.167 HD
ENDBRANCH  47  49
ENDBRANCH  46  47
ENDBRANCH  45  46
ENDBRANCH  11  45
BRANCH  18  51
HETATM   51  C   UNK     0     -30.588   0.343   8.382  0.00  0.00     0.051 C 
BRANCH  51  52
HETATM   52  C   UNK     0     -30.660   1.724   9.017  0.00  0.00     0.114 C 
BRANCH  52  53
HETATM   53  C   UNK     0     -31.675   1.785  10.087  0.00  0.00     0.139 C 
HETATM   54  O   UNK     0     -31.791   2.811  10.776  0.00  0.00    -0.650 OA
BRANCH  53  55
HETATM   55  O   UNK     0     -32.486   0.700  10.317  0.00  0.00    -0.776 OA
HETATM   56  H   UNK     0     -33.347   0.709  10.810  0.00  0.00     0.167 HD
ENDBRANCH  53  55
ENDBRANCH  52  53
ENDBRANCH  51  52
ENDBRANCH  18  51
TORSDOF 16
ENDMDL
MODEL 14
REMARK VINA RESULT:      -7.9      3.234      4.765
REMARK  16 active torsions:
REMARK  status: ('A' for Active; 'I' for Inactive)
REMARK    1  A    between atoms: C_6  and  C_7 
REMARK    2  A    between atoms: C_7  and  C_8 
REMARK    3  A    between atoms: C_8  and  C_9 
REMARK    4  A    between atoms: C_9  and  O_11 
REMARK    5  A    between atoms: C_16  and  C_17 
REMARK    6  A    between atoms: C_17  and  C_18 
REMARK    7  A    between atoms: C_18  and  C_19 
REMARK    8  A    between atoms: C_19  and  O_21 
REMARK    9  A    between atoms: C_28  and  C_29 
REMARK   10  A    between atoms: C_29  and  C_30 
REMARK   11  A    between atoms: C_30  and  C_31 
REMARK   12  A    between atoms: C_31  and  O_33 
REMARK   13  A    between atoms: C_42  and  C_43 
REMARK   14  A    between atoms: C_43  and  C_44 
REMARK   15  A    between atoms: C_44  and  C_45 
REMARK   16  A    between atoms: C_45  and  O_47 
ROOT
HETATM    1  C   UNK     0     -25.288  -5.654   7.091  0.00  0.00     0.051 C 
HETATM    2  C   UNK     0     -24.901  -5.080   8.439  0.00  0.00    -0.031 A 
HETATM    3  C   UNK     0     -24.761  -3.755   8.823  0.00  0.00     0.021 A 
HETATM    4  N   UNK     0     -24.369  -3.711  10.118  0.00  0.00    -0.361 N 
HETATM    5  C   UNK     0     -24.265  -4.977  10.571  0.00  0.00     0.022 A 
HETATM    6  C   UNK     0     -24.588  -5.859   9.545  0.00  0.00    -0.027 A 
HETATM    7  C   UNK     0     -23.958  -5.474  11.949  0.00  0.00     0.115 C 
HETATM    8  C   UNK     0     -24.636  -4.751  13.100  0.00  0.00     0.021 A 
HETATM    9  N   UNK     0     -25.867  -4.219  13.144  0.00  0.00    -0.361 N 
HETATM   10  C   UNK     0     -26.013  -3.596  14.333  0.00  0.00     0.022 A 
HETATM   11  C   UNK     0     -24.846  -3.739  15.079  0.00  0.00    -0.027 A 
HETATM   12  C   UNK     0     -23.975  -4.466  14.308  0.00  0.00    -0.031 A 
HETATM   13  C   UNK     0     -22.576  -4.871  14.716  0.00  0.00     0.051 C 
HETATM   14  C   UNK     0     -27.231  -2.800  14.790  0.00  0.00     0.115 C 
HETATM   15  C   UNK     0     -27.548  -1.600  13.912  0.00  0.00     0.021 A 
HETATM   16  N   UNK     0     -27.819  -1.596  12.593  0.00  0.00    -0.361 N 
HETATM   17  C   UNK     0     -27.973  -0.336  12.181  0.00  0.00     0.022 A 
HETATM   18  C   UNK     0     -27.802   0.522  13.285  0.00  0.00    -0.027 A 
HETATM   19  C   UNK     0     -27.538  -0.282  14.364  0.00  0.00    -0.031 A 
HETATM   20  C   UNK     0     -27.323   0.240  15.773  0.00  0.00     0.051 C 
HETATM   21  C   UNK     0     -28.216   0.210  10.792  0.00  0.00     0.115 C 
HETATM   22  C   UNK     0     -27.583  -0.525   9.633  0.00  0.00     0.022 A 
HETATM   23  N   UNK     0     -26.361  -1.069   9.563  0.00  0.00    -0.361 N 
HETATM   24  C   UNK     0     -26.267  -1.750   8.403  0.00  0.00     0.021 A 
HETATM   25  C   UNK     0     -27.453  -1.633   7.705  0.00  0.00    -0.031 A 
HETATM   26  C   UNK     0     -27.815  -2.185   6.342  0.00  0.00     0.051 C 
HETATM   27  C   UNK     0     -28.312  -0.854   8.472  0.00  0.00    -0.027 A 
HETATM   28  C   UNK     0     -25.109  -2.606   7.920  0.00  0.00     0.115 C 
HETATM   29  H   UNK     0     -24.130  -2.785  10.692  0.00  0.00     0.165 HD
HETATM   30  H   UNK     0     -26.655  -4.324  12.358  0.00  0.00     0.165 HD
HETATM   31  H   UNK     0     -27.953  -2.504  11.949  0.00  0.00     0.165 HD
HETATM   32  H   UNK     0     -25.538  -0.941  10.313  0.00  0.00     0.165 HD
ENDROOT
BRANCH   6  33
HETATM   33  C   UNK     0     -24.619  -7.367   9.535  0.00  0.00     0.051 C 
BRANCH  33  34
HETATM   34  C   UNK     0     -25.826  -7.882  10.283  0.00  0.00     0.114 C 
BRANCH  34  35
HETATM   35  C   UNK     0     -26.889  -8.163   9.277  0.00  0.00     0.139 C 
HETATM   36  O   UNK     0     -28.092  -7.857   9.518  0.00  0.00    -0.650 OA
BRANCH  35  37
HETATM   37  O   UNK     0     -26.620  -8.759   8.050  0.00  0.00    -0.776 OA
HETATM   38  H   UNK     0     -26.832  -9.727   7.869  0.00  0.00     0.167 HD
ENDBRANCH  35  37
ENDBRANCH  34  35
ENDBRANCH  33  34
ENDBRANCH   6  33
BRANCH  27  39
HETATM   39  C   UNK     0     -29.668  -0.449   8.012  0.00  0.00     0.051 C 
BRANCH  39  40
HETATM   40  C   UNK     0     -29.988   0.978   7.965  0.00  0.00     0.114 C 
BRANCH  40  41
HETATM   41  C   UNK     0     -30.967   1.577   8.843  0.00  0.00     0.139 C 
HETATM   42  O   UNK     0     -31.762   0.921   9.530  0.00  0.00    -0.650 OA
BRANCH  41  43
HETATM   43  O   UNK     0     -31.036   2.996   8.936  0.00  0.00    -0.776 OA
HETATM   44  H   UNK     0     -30.448   3.488   8.274  0.00  0.00     0.167 HD
ENDBRANCH  41  43
ENDBRANCH  40  41
ENDBRANCH  39  40
ENDBRANCH  27  39
BRANCH  11  45
HETATM   45  C   UNK     0     -24.543  -3.225  16.460  0.00  0.00     0.051 C 
BRANCH  45  46
HETATM   46  C   UNK     0     -24.367  -1.752  16.534  0.00  0.00     0.114 C 
BRANCH  46  47
HETATM   47  C   UNK     0     -24.740  -1.331  17.915  0.00  0.00     0.139 C 
HETATM   48  O   UNK     0     -25.582  -2.000  18.531  0.00  0.00    -0.650 OA
BRANCH  47  49
HETATM   49  O   UNK     0     -24.166  -0.227  18.492  0.00  0.00    -0.776 OA
HETATM   50  H   UNK     0     -23.350   0.242  18.080  0.00  0.00     0.167 HD
ENDBRANCH  47  49
ENDBRANCH  46  47
ENDBRANCH  45  46
ENDBRANCH  11  45
BRANCH  18  51
HETATM   51  C   UNK     0     -27.906   2.025  13.316  0.00  0.00     0.051 C 
BRANCH  51  52
HETATM   52  C   UNK     0     -29.336   2.345  13.726  0.00  0.00     0.114 C 
BRANCH  52  53
HETATM   53  C   UNK     0     -30.218   2.520  12.556  0.00  0.00     0.139 C 
HETATM   54  O   UNK     0     -30.013   3.448  11.757  0.00  0.00    -0.650 OA
BRANCH  53  55
HETATM   55  O   UNK     0     -31.266   1.654  12.359  0.00  0.00    -0.776 OA
HETATM   56  H   UNK     0     -31.673   1.419  11.485  0.00  0.00     0.167 HD
ENDBRANCH  53  55
ENDBRANCH  52  53
ENDBRANCH  51  52
ENDBRANCH  18  51
TORSDOF 16
ENDMDL
MODEL 15
REMARK VINA RESULT:      -7.8      2.877      7.598
REMARK  16 active torsions:
REMARK  status: ('A' for Active; 'I' for Inactive)
REMARK    1  A    between atoms: C_6  and  C_7 
REMARK    2  A    between atoms: C_7  and  C_8 
REMARK    3  A    between atoms: C_8  and  C_9 
REMARK    4  A    between atoms: C_9  and  O_11 
REMARK    5  A    between atoms: C_16  and  C_17 
REMARK    6  A    between atoms: C_17  and  C_18 
REMARK    7  A    between atoms: C_18  and  C_19 
REMARK    8  A    between atoms: C_19  and  O_21 
REMARK    9  A    between atoms: C_28  and  C_29 
REMARK   10  A    between atoms: C_29  and  C_30 
REMARK   11  A    between atoms: C_30  and  C_31 
REMARK   12  A    between atoms: C_31  and  O_33 
REMARK   13  A    between atoms: C_42  and  C_43 
REMARK   14  A    between atoms: C_43  and  C_44 
REMARK   15  A    between atoms: C_44  and  C_45 
REMARK   16  A    between atoms: C_45  and  O_47 
ROOT
HETATM    1  C   UNK     0     -25.491  -7.875  10.198  0.00  0.00     0.051 C 
HETATM    2  C   UNK     0     -26.032  -6.803   9.274  0.00  0.00    -0.031 A 
HETATM    3  C   UNK     0     -27.178  -6.033   9.395  0.00  0.00     0.021 A 
HETATM    4  N   UNK     0     -27.281  -5.223   8.315  0.00  0.00    -0.361 N 
HETATM    5  C   UNK     0     -26.221  -5.453   7.513  0.00  0.00     0.022 A 
HETATM    6  C   UNK     0     -25.421  -6.439   8.081  0.00  0.00    -0.027 A 
HETATM    7  C   UNK     0     -25.815  -4.761   6.249  0.00  0.00     0.115 C 
HETATM    8  C   UNK     0     -25.937  -3.247   6.232  0.00  0.00     0.021 A 
HETATM    9  N   UNK     0     -25.727  -2.380   7.235  0.00  0.00    -0.361 N 
HETATM   10  C   UNK     0     -26.043  -1.144   6.794  0.00  0.00     0.022 A 
HETATM   11  C   UNK     0     -26.460  -1.216   5.467  0.00  0.00    -0.027 A 
HETATM   12  C   UNK     0     -26.395  -2.538   5.108  0.00  0.00    -0.031 A 
HETATM   13  C   UNK     0     -26.751  -3.092   3.746  0.00  0.00     0.051 C 
HETATM   14  C   UNK     0     -26.017   0.141   7.616  0.00  0.00     0.115 C 
HETATM   15  C   UNK     0     -26.955   0.125   8.813  0.00  0.00     0.021 A 
HETATM   16  N   UNK     0     -26.959  -0.743   9.842  0.00  0.00    -0.361 N 
HETATM   17  C   UNK     0     -27.982  -0.460  10.650  0.00  0.00     0.022 A 
HETATM   18  C   UNK     0     -28.673   0.652  10.128  0.00  0.00    -0.027 A 
HETATM   19  C   UNK     0     -28.019   1.009   8.978  0.00  0.00    -0.031 A 
HETATM   20  C   UNK     0     -28.416   2.192   8.114  0.00  0.00     0.051 C 
HETATM   21  C   UNK     0     -28.464  -1.172  11.894  0.00  0.00     0.115 C 
HETATM   22  C   UNK     0     -28.309  -2.674  11.943  0.00  0.00     0.022 A 
HETATM   23  N   UNK     0     -28.507  -3.561  10.959  0.00  0.00    -0.361 N 
HETATM   24  C   UNK     0     -28.112  -4.773  11.397  0.00  0.00     0.021 A 
HETATM   25  C   UNK     0     -27.657  -4.666  12.697  0.00  0.00    -0.031 A 
HETATM   26  C   UNK     0     -27.151  -5.753  13.623  0.00  0.00     0.051 C 
HETATM   27  C   UNK     0     -27.774  -3.332  13.069  0.00  0.00    -0.027 A 
HETATM   28  C   UNK     0     -28.058  -6.073  10.612  0.00  0.00     0.115 C 
HETATM   29  H   UNK     0     -28.122  -4.521   8.108  0.00  0.00     0.165 HD
HETATM   30  H   UNK     0     -25.308  -2.631   8.240  0.00  0.00     0.165 HD
HETATM   31  H   UNK     0     -26.195  -1.543  10.028  0.00  0.00     0.165 HD
HETATM   32  H   UNK     0     -28.969  -3.347   9.960  0.00  0.00     0.165 HD
ENDROOT
BRANCH   6  33
HETATM   33  C   UNK     0     -24.138  -7.054   7.582  0.00  0.00     0.051 C 
BRANCH  33  34
HETATM   34  C   UNK     0     -22.941  -6.320   8.138  0.00  0.00     0.114 C 
BRANCH  34  35
HETATM   35  C   UNK     0     -22.688  -5.145   7.255  0.00  0.00     0.139 C 
HETATM   36  O   UNK     0     -22.283  -5.316   6.068  0.00  0.00    -0.650 OA
BRANCH  35  37
HETATM   37  O   UNK     0     -22.881  -3.835   7.676  0.00  0.00    -0.776 OA
HETATM   38  H   UNK     0     -22.391  -3.061   7.259  0.00  0.00     0.167 HD
ENDBRANCH  35  37
ENDBRANCH  34  35
ENDBRANCH  33  34
ENDBRANCH   6  33
BRANCH  27  39
HETATM   39  C   UNK     0     -27.446  -2.839  14.434  0.00  0.00     0.051 C 
BRANCH  39  40
HETATM   40  C   UNK     0     -26.157  -2.180  14.643  0.00  0.00     0.114 C 
BRANCH  40  41
HETATM   41  C   UNK     0     -24.931  -2.924  14.821  0.00  0.00     0.139 C 
HETATM   42  O   UNK     0     -24.721  -3.676  15.783  0.00  0.00    -0.650 OA
BRANCH  41  43
HETATM   43  O   UNK     0     -23.898  -2.798  13.849  0.00  0.00    -0.776 OA
HETATM   44  H   UNK     0     -23.618  -1.843  13.657  0.00  0.00     0.167 HD
ENDBRANCH  41  43
ENDBRANCH  40  41
ENDBRANCH  39  40
ENDBRANCH  27  39
BRANCH  11  45
HETATM   45  C   UNK     0     -26.901  -0.101   4.557  0.00  0.00     0.051 C 
BRANCH  45  46
HETATM   46  C   UNK     0     -25.792   0.550   3.815  0.00  0.00     0.114 C 
BRANCH  46  47
HETATM   47  C   UNK     0     -26.366   1.095   2.552  0.00  0.00     0.139 C 
HETATM   48  O   UNK     0     -25.731   1.965   1.939  0.00  0.00    -0.650 OA
BRANCH  47  49
HETATM   49  O   UNK     0     -27.572   0.645   2.077  0.00  0.00    -0.776 OA
HETATM   50  H   UNK     0     -27.699  -0.313   1.732  0.00  0.00     0.167 HD
ENDBRANCH  47  49
ENDBRANCH  46  47
ENDBRANCH  45  46
ENDBRANCH  11  45
BRANCH  18  51
HETATM   51  C   UNK     0     -29.878   1.349  10.705  0.00  0.00     0.051 C 
BRANCH  51  52
HETATM   52  C   UNK     0     -31.096   0.642  10.128  0.00  0.00     0.114 C 
BRANCH  52  53
HETATM   53  C   UNK     0     -32.172   1.593   9.789  0.00  0.00     0.139 C 
HETATM   54  O   UNK     0     -31.926   2.587   9.088  0.00  0.00    -0.650 OA
BRANCH  53  55
HETATM   55  O   UNK     0     -33.446   1.371  10.254  0.00  0.00    -0.776 OA
HETATM   56  H   UNK     0     -33.707   1.248  11.204  0.00  0.00     0.167 HD
ENDBRANCH  53  55
ENDBRANCH  52  53
ENDBRANCH  51  52
ENDBRANCH  18  51
TORSDOF 16
ENDMDL
MODEL 16
REMARK VINA RESULT:      -7.8     21.481     25.443
REMARK  16 active torsions:
REMARK  status: ('A' for Active; 'I' for Inactive)
REMARK    1  A    between atoms: C_6  and  C_7 
REMARK    2  A    between atoms: C_7  and  C_8 
REMARK    3  A    between atoms: C_8  and  C_9 
REMARK    4  A    between atoms: C_9  and  O_11 
REMARK    5  A    between atoms: C_16  and  C_17 
REMARK    6  A    between atoms: C_17  and  C_18 
REMARK    7  A    between atoms: C_18  and  C_19 
REMARK    8  A    between atoms: C_19  and  O_21 
REMARK    9  A    between atoms: C_28  and  C_29 
REMARK   10  A    between atoms: C_29  and  C_30 
REMARK   11  A    between atoms: C_30  and  C_31 
REMARK   12  A    between atoms: C_31  and  O_33 
REMARK   13  A    between atoms: C_42  and  C_43 
REMARK   14  A    between atoms: C_43  and  C_44 
REMARK   15  A    between atoms: C_44  and  C_45 
REMARK   16  A    between atoms: C_45  and  O_47 
ROOT
HETATM    1  C   UNK     0     -11.662   2.042  -2.633  0.00  0.00     0.051 C 
HETATM    2  C   UNK     0     -10.929   0.724  -2.489  0.00  0.00    -0.031 A 
HETATM    3  C   UNK     0     -11.071  -0.445  -3.219  0.00  0.00     0.021 A 
HETATM    4  N   UNK     0     -10.230  -1.382  -2.720  0.00  0.00    -0.361 N 
HETATM    5  C   UNK     0      -9.549  -0.833  -1.693  0.00  0.00     0.022 A 
HETATM    6  C   UNK     0      -9.964   0.483  -1.519  0.00  0.00    -0.027 A 
HETATM    7  C   UNK     0      -8.441  -1.409  -0.868  0.00  0.00     0.115 C 
HETATM    8  C   UNK     0      -7.372  -2.188  -1.613  0.00  0.00     0.021 A 
HETATM    9  N   UNK     0      -6.866  -1.956  -2.834  0.00  0.00    -0.361 N 
HETATM   10  C   UNK     0      -6.006  -2.954  -3.129  0.00  0.00     0.022 A 
HETATM   11  C   UNK     0      -5.950  -3.849  -2.064  0.00  0.00    -0.027 A 
HETATM   12  C   UNK     0      -6.807  -3.373  -1.106  0.00  0.00    -0.031 A 
HETATM   13  C   UNK     0      -7.068  -4.022   0.235  0.00  0.00     0.051 C 
HETATM   14  C   UNK     0      -5.247  -3.133  -4.440  0.00  0.00     0.115 C 
HETATM   15  C   UNK     0      -6.147  -3.298  -5.655  0.00  0.00     0.021 A 
HETATM   16  N   UNK     0      -7.082  -2.441  -6.107  0.00  0.00    -0.361 N 
HETATM   17  C   UNK     0      -7.703  -2.984  -7.156  0.00  0.00     0.022 A 
HETATM   18  C   UNK     0      -7.140  -4.251  -7.406  0.00  0.00    -0.027 A 
HETATM   19  C   UNK     0      -6.165  -4.435  -6.459  0.00  0.00    -0.031 A 
HETATM   20  C   UNK     0      -5.280  -5.666  -6.388  0.00  0.00     0.051 C 
HETATM   21  C   UNK     0      -8.865  -2.466  -7.972  0.00  0.00     0.115 C 
HETATM   22  C   UNK     0      -9.915  -1.651  -7.253  0.00  0.00     0.022 A 
HETATM   23  N   UNK     0     -10.434  -1.857  -6.035  0.00  0.00    -0.361 N 
HETATM   24  C   UNK     0     -11.228  -0.810  -5.731  0.00  0.00     0.021 A 
HETATM   25  C   UNK     0     -11.227   0.086  -6.782  0.00  0.00    -0.031 A 
HETATM   26  C   UNK     0     -11.992   1.385  -6.928  0.00  0.00     0.051 C 
HETATM   27  C   UNK     0     -10.394  -0.430  -7.768  0.00  0.00    -0.027 A 
HETATM   28  C   UNK     0     -11.960  -0.547  -4.426  0.00  0.00     0.115 C 
HETATM   29  H   UNK     0     -10.151  -2.437  -3.071  0.00  0.00     0.165 HD
HETATM   30  H   UNK     0      -7.075  -1.062  -3.470  0.00  0.00     0.165 HD
HETATM   31  H   UNK     0      -7.275  -1.412  -5.708  0.00  0.00     0.165 HD
HETATM   32  H   UNK     0     -10.279  -2.765  -5.396  0.00  0.00     0.165 HD
ENDROOT
BRANCH   6  33
HETATM   33  C   UNK     0      -9.521   1.516  -0.514  0.00  0.00     0.051 C 
BRANCH  33  34
HETATM   34  C   UNK     0      -8.277   2.227  -0.990  0.00  0.00     0.114 C 
BRANCH  34  35
HETATM   35  C   UNK     0      -8.635   3.659  -1.203  0.00  0.00     0.139 C 
HETATM   36  O   UNK     0      -9.739   4.109  -0.779  0.00  0.00    -0.650 OA
BRANCH  35  37
HETATM   37  O   UNK     0      -7.796   4.551  -1.859  0.00  0.00    -0.776 OA
HETATM   38  H   UNK     0      -6.925   4.260  -2.273  0.00  0.00     0.167 HD
ENDBRANCH  35  37
ENDBRANCH  34  35
ENDBRANCH  33  34
ENDBRANCH   6  33
BRANCH  27  39
HETATM   39  C   UNK     0     -10.198   0.226  -9.089  0.00  0.00     0.051 C 
BRANCH  39  40
HETATM   40  C   UNK     0      -8.899   0.836  -9.375  0.00  0.00     0.114 C 
BRANCH  40  41
HETATM   41  C   UNK     0      -8.545   1.312 -10.693  0.00  0.00     0.139 C 
HETATM   42  O   UNK     0      -8.280   0.561 -11.642  0.00  0.00    -0.650 OA
BRANCH  41  43
HETATM   43  O   UNK     0      -8.492   2.714 -10.930  0.00  0.00    -0.776 OA
HETATM   44  H   UNK     0      -7.654   3.167 -10.585  0.00  0.00     0.167 HD
ENDBRANCH  41  43
ENDBRANCH  40  41
ENDBRANCH  39  40
ENDBRANCH  27  39
BRANCH  11  45
HETATM   45  C   UNK     0      -5.129  -5.104  -1.931  0.00  0.00     0.051 C 
BRANCH  45  46
HETATM   46  C   UNK     0      -3.853  -4.918  -1.195  0.00  0.00     0.114 C 
BRANCH  46  47
HETATM   47  C   UNK     0      -3.167  -6.242  -1.159  0.00  0.00     0.139 C 
HETATM   48  O   UNK     0      -2.726  -6.709  -2.219  0.00  0.00    -0.650 OA
BRANCH  47  49
HETATM   49  O   UNK     0      -3.028  -6.930   0.020  0.00  0.00    -0.776 OA
HETATM   50  H   UNK     0      -2.876  -6.452   0.915  0.00  0.00     0.167 HD
ENDBRANCH  47  49
ENDBRANCH  46  47
ENDBRANCH  45  46
ENDBRANCH  11  45
BRANCH  18  51
HETATM   51  C   UNK     0      -7.496  -5.224  -8.500  0.00  0.00     0.051 C 
BRANCH  51  52
HETATM   52  C   UNK     0      -6.734  -4.772  -9.737  0.00  0.00     0.114 C 
BRANCH  52  53
HETATM   53  C   UNK     0      -7.643  -4.439 -10.851  0.00  0.00     0.139 C 
HETATM   54  O   UNK     0      -8.854  -4.695 -10.762  0.00  0.00    -0.650 OA
BRANCH  53  55
HETATM   55  O   UNK     0      -7.140  -3.849 -11.985  0.00  0.00    -0.776 OA
HETATM   56  H   UNK     0      -6.247  -3.424 -12.075  0.00  0.00     0.167 HD
ENDBRANCH  53  55
ENDBRANCH  52  53
ENDBRANCH  51  52
ENDBRANCH  18  51
TORSDOF 16
ENDMDL
MODEL 17
REMARK VINA RESULT:      -7.8      3.587      7.417
REMARK  16 active torsions:
REMARK  status: ('A' for Active; 'I' for Inactive)
REMARK    1  A    between atoms: C_6  and  C_7 
REMARK    2  A    between atoms: C_7  and  C_8 
REMARK    3  A    between atoms: C_8  and  C_9 
REMARK    4  A    between atoms: C_9  and  O_11 
REMARK    5  A    between atoms: C_16  and  C_17 
REMARK    6  A    between atoms: C_17  and  C_18 
REMARK    7  A    between atoms: C_18  and  C_19 
REMARK    8  A    between atoms: C_19  and  O_21 
REMARK    9  A    between atoms: C_28  and  C_29 
REMARK   10  A    between atoms: C_29  and  C_30 
REMARK   11  A    between atoms: C_30  and  C_31 
REMARK   12  A    between atoms: C_31  and  O_33 
REMARK   13  A    between atoms: C_42  and  C_43 
REMARK   14  A    between atoms: C_43  and  C_44 
REMARK   15  A    between atoms: C_44  and  C_45 
REMARK   16  A    between atoms: C_45  and  O_47 
ROOT
HETATM    1  C   UNK     0     -23.319  -4.486  15.357  0.00  0.00     0.051 C 
HETATM    2  C   UNK     0     -23.713  -4.783  13.924  0.00  0.00    -0.031 A 
HETATM    3  C   UNK     0     -24.967  -4.761  13.334  0.00  0.00     0.021 A 
HETATM    4  N   UNK     0     -24.850  -5.127  12.036  0.00  0.00    -0.361 N 
HETATM    5  C   UNK     0     -23.548  -5.374  11.783  0.00  0.00     0.022 A 
HETATM    6  C   UNK     0     -22.809  -5.171  12.944  0.00  0.00    -0.027 A 
HETATM    7  C   UNK     0     -22.878  -5.718  10.490  0.00  0.00     0.115 C 
HETATM    8  C   UNK     0     -23.327  -4.943   9.263  0.00  0.00     0.021 A 
HETATM    9  N   UNK     0     -23.700  -3.657   9.176  0.00  0.00    -0.361 N 
HETATM   10  C   UNK     0     -24.106  -3.423   7.910  0.00  0.00     0.022 A 
HETATM   11  C   UNK     0     -23.981  -4.588   7.158  0.00  0.00    -0.027 A 
HETATM   12  C   UNK     0     -23.491  -5.550   8.004  0.00  0.00    -0.031 A 
HETATM   13  C   UNK     0     -23.189  -6.981   7.620  0.00  0.00     0.051 C 
HETATM   14  C   UNK     0     -24.675  -2.113   7.373  0.00  0.00     0.115 C 
HETATM   15  C   UNK     0     -25.955  -1.669   8.064  0.00  0.00     0.021 A 
HETATM   16  N   UNK     0     -26.137  -1.417   9.374  0.00  0.00    -0.361 N 
HETATM   17  C   UNK     0     -27.420  -1.122   9.589  0.00  0.00     0.022 A 
HETATM   18  C   UNK     0     -28.106  -1.174   8.360  0.00  0.00    -0.027 A 
HETATM   19  C   UNK     0     -27.177  -1.517   7.412  0.00  0.00    -0.031 A 
HETATM   20  C   UNK     0     -27.489  -1.649   5.933  0.00  0.00     0.051 C 
HETATM   21  C   UNK     0     -28.147  -0.835  10.884  0.00  0.00     0.115 C 
HETATM   22  C   UNK     0     -27.683  -1.565  12.121  0.00  0.00     0.022 A 
HETATM   23  N   UNK     0     -27.301  -2.844  12.236  0.00  0.00    -0.361 N 
HETATM   24  C   UNK     0     -26.828  -3.034  13.484  0.00  0.00     0.021 A 
HETATM   25  C   UNK     0     -26.917  -1.852  14.194  0.00  0.00    -0.031 A 
HETATM   26  C   UNK     0     -26.550  -1.576  15.637  0.00  0.00     0.051 C 
HETATM   27  C   UNK     0     -27.461  -0.897  13.343  0.00  0.00    -0.027 A 
HETATM   28  C   UNK     0     -26.197  -4.291  14.058  0.00  0.00     0.115 C 
HETATM   29  H   UNK     0     -25.694  -5.247  11.317  0.00  0.00     0.165 HD
HETATM   30  H   UNK     0     -23.632  -2.899   9.994  0.00  0.00     0.165 HD
HETATM   31  H   UNK     0     -25.333  -1.400  10.156  0.00  0.00     0.165 HD
HETATM   32  H   UNK     0     -27.402  -3.636  11.450  0.00  0.00     0.165 HD
ENDROOT
BRANCH   6  33
HETATM   33  C   UNK     0     -21.329  -5.319  13.189  0.00  0.00     0.051 C 
BRANCH  33  34
HETATM   34  C   UNK     0     -20.869  -6.720  12.863  0.00  0.00     0.114 C 
BRANCH  34  35
HETATM   35  C   UNK     0     -19.414  -6.797  13.178  0.00  0.00     0.139 C 
HETATM   36  O   UNK     0     -18.717  -7.758  12.739  0.00  0.00    -0.650 OA
BRANCH  35  37
HETATM   37  O   UNK     0     -18.762  -5.841  13.947  0.00  0.00    -0.776 OA
HETATM   38  H   UNK     0     -17.769  -5.874  14.112  0.00  0.00     0.167 HD
ENDBRANCH  35  37
ENDBRANCH  34  35
ENDBRANCH  33  34
ENDBRANCH   6  33
BRANCH  27  39
HETATM   39  C   UNK     0     -27.776   0.491  13.777  0.00  0.00     0.051 C 
BRANCH  39  40
HETATM   40  C   UNK     0     -29.170   0.830  14.064  0.00  0.00     0.114 C 
BRANCH  40  41
HETATM   41  C   UNK     0     -30.145   1.034  13.016  0.00  0.00     0.139 C 
HETATM   42  O   UNK     0     -31.107   0.279  12.822  0.00  0.00    -0.650 OA
BRANCH  41  43
HETATM   43  O   UNK     0     -30.006   2.157  12.153  0.00  0.00    -0.776 OA
HETATM   44  H   UNK     0     -29.691   3.003  12.612  0.00  0.00     0.167 HD
ENDBRANCH  41  43
ENDBRANCH  40  41
ENDBRANCH  39  40
ENDBRANCH  27  39
BRANCH  11  45
HETATM   45  C   UNK     0     -24.301  -4.809   5.704  0.00  0.00     0.051 C 
BRANCH  45  46
HETATM   46  C   UNK     0     -25.703  -5.231   5.449  0.00  0.00     0.114 C 
BRANCH  46  47
HETATM   47  C   UNK     0     -26.108  -4.647   4.139  0.00  0.00     0.139 C 
HETATM   48  O   UNK     0     -25.391  -3.771   3.634  0.00  0.00    -0.650 OA
BRANCH  47  49
HETATM   49  O   UNK     0     -27.250  -5.067   3.505  0.00  0.00    -0.776 OA
HETATM   50  H   UNK     0     -27.885  -4.412   3.034  0.00  0.00     0.167 HD
ENDBRANCH  47  49
ENDBRANCH  46  47
ENDBRANCH  45  46
ENDBRANCH  11  45
BRANCH  18  51
HETATM   51  C   UNK     0     -29.563  -0.892   8.099  0.00  0.00     0.051 C 
BRANCH  51  52
HETATM   52  C   UNK     0     -29.676   0.611   7.894  0.00  0.00     0.114 C 
BRANCH  52  53
HETATM   53  C   UNK     0     -30.505   1.247   8.936  0.00  0.00     0.139 C 
HETATM   54  O   UNK     0     -30.484   2.480   9.080  0.00  0.00    -0.650 OA
BRANCH  53  55
HETATM   55  O   UNK     0     -31.294   0.467   9.747  0.00  0.00    -0.776 OA
HETATM   56  H   UNK     0     -32.141   0.022   9.483  0.00  0.00     0.167 HD
ENDBRANCH  53  55
ENDBRANCH  52  53
ENDBRANCH  51  52
ENDBRANCH  18  51
TORSDOF 16
ENDMDL
MODEL 18
REMARK VINA RESULT:      -7.7      2.815      7.348
REMARK  16 active torsions:
REMARK  status: ('A' for Active; 'I' for Inactive)
REMARK    1  A    between atoms: C_6  and  C_7 
REMARK    2  A    between atoms: C_7  and  C_8 
REMARK    3  A    between atoms: C_8  and  C_9 
REMARK    4  A    between atoms: C_9  and  O_11 
REMARK    5  A    between atoms: C_16  and  C_17 
REMARK    6  A    between atoms: C_17  and  C_18 
REMARK    7  A    between atoms: C_18  and  C_19 
REMARK    8  A    between atoms: C_19  and  O_21 
REMARK    9  A    between atoms: C_28  and  C_29 
REMARK   10  A    between atoms: C_29  and  C_30 
REMARK   11  A    between atoms: C_30  and  C_31 
REMARK   12  A    between atoms: C_31  and  O_33 
REMARK   13  A    between atoms: C_42  and  C_43 
REMARK   14  A    between atoms: C_43  and  C_44 
REMARK   15  A    between atoms: C_44  and  C_45 
REMARK   16  A    between atoms: C_45  and  O_47 
ROOT
HETATM    1  C   UNK     0     -25.081  -2.453   4.156  0.00  0.00     0.051 C 
HETATM    2  C   UNK     0     -26.110  -2.088   5.207  0.00  0.00    -0.031 A 
HETATM    3  C   UNK     0     -26.691  -2.883   6.182  0.00  0.00     0.021 A 
HETATM    4  N   UNK     0     -27.584  -2.142   6.881  0.00  0.00    -0.361 N 
HETATM    5  C   UNK     0     -27.577  -0.890   6.378  0.00  0.00     0.022 A 
HETATM    6  C   UNK     0     -26.668  -0.822   5.327  0.00  0.00    -0.027 A 
HETATM    7  C   UNK     0     -28.307   0.329   6.849  0.00  0.00     0.115 C 
HETATM    8  C   UNK     0     -28.349   0.561   8.349  0.00  0.00     0.021 A 
HETATM    9  N   UNK     0     -27.401   0.298   9.263  0.00  0.00    -0.361 N 
HETATM   10  C   UNK     0     -27.906   0.578  10.483  0.00  0.00     0.022 A 
HETATM   11  C   UNK     0     -29.212   1.043  10.351  0.00  0.00    -0.027 A 
HETATM   12  C   UNK     0     -29.496   1.035   9.009  0.00  0.00    -0.031 A 
HETATM   13  C   UNK     0     -30.807   1.467   8.392  0.00  0.00     0.051 C 
HETATM   14  C   UNK     0     -27.201   0.369  11.820  0.00  0.00     0.115 C 
HETATM   15  C   UNK     0     -26.829  -1.078  12.101  0.00  0.00     0.021 A 
HETATM   16  N   UNK     0     -26.044  -1.882  11.360  0.00  0.00    -0.361 N 
HETATM   17  C   UNK     0     -26.022  -3.099  11.908  0.00  0.00     0.022 A 
HETATM   18  C   UNK     0     -26.824  -3.084  13.067  0.00  0.00    -0.027 A 
HETATM   19  C   UNK     0     -27.322  -1.812  13.177  0.00  0.00    -0.031 A 
HETATM   20  C   UNK     0     -28.213  -1.350  14.316  0.00  0.00     0.051 C 
HETATM   21  C   UNK     0     -25.356  -4.369  11.430  0.00  0.00     0.115 C 
HETATM   22  C   UNK     0     -25.267  -4.591   9.938  0.00  0.00     0.022 A 
HETATM   23  N   UNK     0     -26.193  -4.335   9.005  0.00  0.00    -0.361 N 
HETATM   24  C   UNK     0     -25.642  -4.547   7.793  0.00  0.00     0.021 A 
HETATM   25  C   UNK     0     -24.333  -4.960   7.950  0.00  0.00    -0.031 A 
HETATM   26  C   UNK     0     -23.325  -5.355   6.891  0.00  0.00     0.051 C 
HETATM   27  C   UNK     0     -24.070  -4.996   9.314  0.00  0.00    -0.027 A 
HETATM   28  C   UNK     0     -26.269  -4.303   6.431  0.00  0.00     0.115 C 
HETATM   29  H   UNK     0     -28.241  -2.519   7.699  0.00  0.00     0.165 HD
HETATM   30  H   UNK     0     -26.358  -0.038   9.046  0.00  0.00     0.165 HD
HETATM   31  H   UNK     0     -25.454  -1.574  10.458  0.00  0.00     0.165 HD
HETATM   32  H   UNK     0     -27.259  -4.043   9.195  0.00  0.00     0.165 HD
ENDROOT
BRANCH   6  33
HETATM   33  C   UNK     0     -26.297   0.338   4.439  0.00  0.00     0.051 C 
BRANCH  33  34
HETATM   34  C   UNK     0     -27.395   0.622   3.442  0.00  0.00     0.114 C 
BRANCH  34  35
HETATM   35  C   UNK     0     -26.951   0.083   2.124  0.00  0.00     0.139 C 
HETATM   36  O   UNK     0     -25.735   0.156   1.783  0.00  0.00    -0.650 OA
BRANCH  35  37
HETATM   37  O   UNK     0     -27.826  -0.516   1.226  0.00  0.00    -0.776 OA
HETATM   38  H   UNK     0     -28.721  -0.879   1.513  0.00  0.00     0.167 HD
ENDBRANCH  35  37
ENDBRANCH  34  35
ENDBRANCH  33  34
ENDBRANCH   6  33
BRANCH  27  39
HETATM   39  C   UNK     0     -22.775  -5.465   9.878  0.00  0.00     0.051 C 
BRANCH  39  40
HETATM   40  C   UNK     0     -22.706  -5.755  11.310  0.00  0.00     0.114 C 
BRANCH  40  41
HETATM   41  C   UNK     0     -21.478  -5.631  12.063  0.00  0.00     0.139 C 
HETATM   42  O   UNK     0     -20.519  -6.405  11.939  0.00  0.00    -0.650 OA
BRANCH  41  43
HETATM   43  O   UNK     0     -21.347  -4.568  13.001  0.00  0.00    -0.776 OA
HETATM   44  H   UNK     0     -22.075  -4.537  13.704  0.00  0.00     0.167 HD
ENDBRANCH  41  43
ENDBRANCH  40  41
ENDBRANCH  39  40
ENDBRANCH  27  39
BRANCH  11  45
HETATM   45  C   UNK     0     -30.167   1.484  11.427  0.00  0.00     0.051 C 
BRANCH  45  46
HETATM   46  C   UNK     0     -31.019   0.393  11.966  0.00  0.00     0.114 C 
BRANCH  46  47
HETATM   47  C   UNK     0     -32.356   0.983  12.263  0.00  0.00     0.139 C 
HETATM   48  O   UNK     0     -32.782   1.885  11.529  0.00  0.00    -0.650 OA
BRANCH  47  49
HETATM   49  O   UNK     0     -33.098   0.539  13.328  0.00  0.00    -0.776 OA
HETATM   50  H   UNK     0     -33.299  -0.457  13.475  0.00  0.00     0.167 HD
ENDBRANCH  47  49
ENDBRANCH  46  47
ENDBRANCH  45  46
ENDBRANCH  11  45
BRANCH  18  51
HETATM   51  C   UNK     0     -27.084  -4.215  14.029  0.00  0.00     0.051 C 
BRANCH  51  52
HETATM   52  C   UNK     0     -28.305  -4.952  13.499  0.00  0.00     0.114 C 
BRANCH  52  53
HETATM   53  C   UNK     0     -29.486  -4.748  14.360  0.00  0.00     0.139 C 
HETATM   54  O   UNK     0     -30.503  -4.206  13.901  0.00  0.00    -0.650 OA
BRANCH  53  55
HETATM   55  O   UNK     0     -29.450  -5.159  15.671  0.00  0.00    -0.776 OA
HETATM   56  H   UNK     0     -30.056  -4.853  16.395  0.00  0.00     0.167 HD
ENDBRANCH  53  55
ENDBRANCH  52  53
ENDBRANCH  51  52
ENDBRANCH  18  51
TORSDOF 16
ENDMDL
MODEL 19
REMARK VINA RESULT:      -7.6     21.531     26.157
REMARK  16 active torsions:
REMARK  status: ('A' for Active; 'I' for Inactive)
REMARK    1  A    between atoms: C_6  and  C_7 
REMARK    2  A    between atoms: C_7  and  C_8 
REMARK    3  A    between atoms: C_8  and  C_9 
REMARK    4  A    between atoms: C_9  and  O_11 
REMARK    5  A    between atoms: C_16  and  C_17 
REMARK    6  A    between atoms: C_17  and  C_18 
REMARK    7  A    between atoms: C_18  and  C_19 
REMARK    8  A    between atoms: C_19  and  O_21 
REMARK    9  A    between atoms: C_28  and  C_29 
REMARK   10  A    between atoms: C_29  and  C_30 
REMARK   11  A    between atoms: C_30  and  C_31 
REMARK   12  A    between atoms: C_31  and  O_33 
REMARK   13  A    between atoms: C_42  and  C_43 
REMARK   14  A    between atoms: C_43  and  C_44 
REMARK   15  A    between atoms: C_44  and  C_45 
REMARK   16  A    between atoms: C_45  and  O_47 
ROOT
HETATM    1  C   UNK     0      -8.095  10.776   1.830  0.00  0.00     0.051 C 
HETATM    2  C   UNK     0      -8.343  12.260   1.656  0.00  0.00    -0.031 A 
HETATM    3  C   UNK     0      -9.237  12.911   0.819  0.00  0.00     0.021 A 
HETATM    4  N   UNK     0      -9.092  14.248   0.974  0.00  0.00    -0.361 N 
HETATM    5  C   UNK     0      -8.132  14.464   1.897  0.00  0.00     0.022 A 
HETATM    6  C   UNK     0      -7.640  13.242   2.343  0.00  0.00    -0.027 A 
HETATM    7  C   UNK     0      -7.659  15.752   2.496  0.00  0.00     0.115 C 
HETATM    8  C   UNK     0      -8.728  16.765   2.867  0.00  0.00     0.021 A 
HETATM    9  N   UNK     0      -9.959  16.541   3.352  0.00  0.00    -0.361 N 
HETATM   10  C   UNK     0     -10.595  17.728   3.446  0.00  0.00     0.022 A 
HETATM   11  C   UNK     0      -9.747  18.745   3.019  0.00  0.00    -0.027 A 
HETATM   12  C   UNK     0      -8.569  18.145   2.653  0.00  0.00    -0.031 A 
HETATM   13  C   UNK     0      -7.347  18.866   2.127  0.00  0.00     0.051 C 
HETATM   14  C   UNK     0     -12.039  17.945   3.891  0.00  0.00     0.115 C 
HETATM   15  C   UNK     0     -13.065  17.254   3.007  0.00  0.00     0.021 A 
HETATM   16  N   UNK     0     -13.161  15.940   2.731  0.00  0.00    -0.361 N 
HETATM   17  C   UNK     0     -14.152  15.746   1.859  0.00  0.00     0.022 A 
HETATM   18  C   UNK     0     -14.737  16.992   1.559  0.00  0.00    -0.027 A 
HETATM   19  C   UNK     0     -14.048  17.929   2.285  0.00  0.00    -0.031 A 
HETATM   20  C   UNK     0     -14.379  19.410   2.282  0.00  0.00     0.051 C 
HETATM   21  C   UNK     0     -14.617  14.476   1.183  0.00  0.00     0.115 C 
HETATM   22  C   UNK     0     -13.569  13.441   0.848  0.00  0.00     0.022 A 
HETATM   23  N   UNK     0     -12.334  13.635   0.367  0.00  0.00    -0.361 N 
HETATM   24  C   UNK     0     -11.693  12.449   0.355  0.00  0.00     0.021 A 
HETATM   25  C   UNK     0     -12.540  11.465   0.829  0.00  0.00    -0.031 A 
HETATM   26  C   UNK     0     -12.290   9.977   0.966  0.00  0.00     0.051 C 
HETATM   27  C   UNK     0     -13.747  12.075   1.151  0.00  0.00    -0.027 A 
HETATM   28  C   UNK     0     -10.246  12.178  -0.018  0.00  0.00     0.115 C 
HETATM   29  H   UNK     0      -9.642  15.031   0.402  0.00  0.00     0.165 HD
HETATM   30  H   UNK     0     -10.366  15.551   3.676  0.00  0.00     0.165 HD
HETATM   31  H   UNK     0     -12.547  15.126   3.198  0.00  0.00     0.165 HD
HETATM   32  H   UNK     0     -11.917  14.605  -0.009  0.00  0.00     0.165 HD
ENDROOT
BRANCH   6  33
HETATM   33  C   UNK     0      -6.565  12.940   3.356  0.00  0.00     0.051 C 
BRANCH  33  34
HETATM   34  C   UNK     0      -5.194  13.085   2.740  0.00  0.00     0.114 C 
BRANCH  34  35
HETATM   35  C   UNK     0      -4.360  11.951   3.233  0.00  0.00     0.139 C 
HETATM   36  O   UNK     0      -3.432  12.158   4.068  0.00  0.00    -0.650 OA
BRANCH  35  37
HETATM   37  O   UNK     0      -4.556  10.641   2.815  0.00  0.00    -0.776 OA
HETATM   38  H   UNK     0      -3.807   9.967   2.798  0.00  0.00     0.167 HD
ENDBRANCH  35  37
ENDBRANCH  34  35
ENDBRANCH  33  34
ENDBRANCH   6  33
BRANCH  27  39
HETATM   39  C   UNK     0     -14.935  11.319   1.630  0.00  0.00     0.051 C 
BRANCH  39  40
HETATM   40  C   UNK     0     -15.038  11.019   3.058  0.00  0.00     0.114 C 
BRANCH  40  41
HETATM   41  C   UNK     0     -16.240  11.284   3.816  0.00  0.00     0.139 C 
HETATM   42  O   UNK     0     -17.374  11.297   3.318  0.00  0.00    -0.650 OA
BRANCH  41  43
HETATM   43  O   UNK     0     -16.133  11.547   5.212  0.00  0.00    -0.776 OA
HETATM   44  H   UNK     0     -16.655  12.355   5.527  0.00  0.00     0.167 HD
ENDBRANCH  41  43
ENDBRANCH  40  41
ENDBRANCH  39  40
ENDBRANCH  27  39
BRANCH  11  45
HETATM   45  C   UNK     0     -10.010  20.226   2.953  0.00  0.00     0.051 C 
BRANCH  45  46
HETATM   46  C   UNK     0     -10.948  20.627   1.873  0.00  0.00     0.114 C 
BRANCH  46  47
HETATM   47  C   UNK     0     -11.640  21.867   2.327  0.00  0.00     0.139 C 
HETATM   48  O   UNK     0     -11.576  22.877   1.612  0.00  0.00    -0.650 OA
BRANCH  47  49
HETATM   49  O   UNK     0     -12.332  21.892   3.511  0.00  0.00    -0.776 OA
HETATM   50  H   UNK     0     -12.760  22.752   3.875  0.00  0.00     0.167 HD
ENDBRANCH  47  49
ENDBRANCH  46  47
ENDBRANCH  45  46
ENDBRANCH  11  45
BRANCH  18  51
HETATM   51  C   UNK     0     -15.903  17.273   0.646  0.00  0.00     0.051 C 
BRANCH  51  52
HETATM   52  C   UNK     0     -17.147  17.240   1.521  0.00  0.00     0.114 C 
BRANCH  52  53
HETATM   53  C   UNK     0     -18.252  16.505   0.878  0.00  0.00     0.139 C 
HETATM   54  O   UNK     0     -19.375  17.026   0.787  0.00  0.00    -0.650 OA
BRANCH  53  55
HETATM   55  O   UNK     0     -18.032  15.242   0.384  0.00  0.00    -0.776 OA
HETATM   56  H   UNK     0     -18.666  14.711  -0.166  0.00  0.00     0.167 HD
ENDBRANCH  53  55
ENDBRANCH  52  53
ENDBRANCH  51  52
ENDBRANCH  18  51
TORSDOF 16
ENDMDL
MODEL 20
REMARK VINA RESULT:      -7.5      4.483      8.389
REMARK  16 active torsions:
REMARK  status: ('A' for Active; 'I' for Inactive)
REMARK    1  A    between atoms: C_6  and  C_7 
REMARK    2  A    between atoms: C_7  and  C_8 
REMARK    3  A    between atoms: C_8  and  C_9 
REMARK    4  A    between atoms: C_9  and  O_11 
REMARK    5  A    between atoms: C_16  and  C_17 
REMARK    6  A    between atoms: C_17  and  C_18 
REMARK    7  A    between atoms: C_18  and  C_19 
REMARK    8  A    between atoms: C_19  and  O_21 
REMARK    9  A    between atoms: C_28  and  C_29 
REMARK   10  A    between atoms: C_29  and  C_30 
REMARK   11  A    between atoms: C_30  and  C_31 
REMARK   12  A    between atoms: C_31  and  O_33 
REMARK   13  A    between atoms: C_42  and  C_43 
REMARK   14  A    between atoms: C_43  and  C_44 
REMARK   15  A    between atoms: C_44  and  C_45 
REMARK   16  A    between atoms: C_45  and  O_47 
ROOT
HETATM    1  C   UNK     0     -24.665   2.508  16.469  0.00  0.00     0.051 C 
HETATM    2  C   UNK     0     -24.806   1.036  16.139  0.00  0.00    -0.031 A 
HETATM    3  C   UNK     0     -25.938   0.235  16.156  0.00  0.00     0.021 A 
HETATM    4  N   UNK     0     -25.588  -1.029  15.819  0.00  0.00    -0.361 N 
HETATM    5  C   UNK     0     -24.261  -1.050  15.580  0.00  0.00     0.022 A 
HETATM    6  C   UNK     0     -23.740   0.225  15.774  0.00  0.00    -0.027 A 
HETATM    7  C   UNK     0     -23.400  -2.171  15.087  0.00  0.00     0.115 C 
HETATM    8  C   UNK     0     -23.965  -3.023  13.965  0.00  0.00     0.021 A 
HETATM    9  N   UNK     0     -24.735  -2.643  12.933  0.00  0.00    -0.361 N 
HETATM   10  C   UNK     0     -25.078  -3.747  12.237  0.00  0.00     0.022 A 
HETATM   11  C   UNK     0     -24.506  -4.868  12.831  0.00  0.00    -0.027 A 
HETATM   12  C   UNK     0     -23.804  -4.419  13.920  0.00  0.00    -0.031 A 
HETATM   13  C   UNK     0     -23.012  -5.290  14.869  0.00  0.00     0.051 C 
HETATM   14  C   UNK     0     -25.998  -3.796  11.020  0.00  0.00     0.115 C 
HETATM   15  C   UNK     0     -27.409  -3.303  11.295  0.00  0.00     0.021 A 
HETATM   16  N   UNK     0     -27.783  -2.093  11.750  0.00  0.00    -0.361 N 
HETATM   17  C   UNK     0     -29.106  -2.079  11.926  0.00  0.00     0.022 A 
HETATM   18  C   UNK     0     -29.620  -3.339  11.559  0.00  0.00    -0.027 A 
HETATM   19  C   UNK     0     -28.548  -4.096  11.165  0.00  0.00    -0.031 A 
HETATM   20  C   UNK     0     -28.663  -5.520  10.653  0.00  0.00     0.051 C 
HETATM   21  C   UNK     0     -30.002  -0.995  12.481  0.00  0.00     0.115 C 
HETATM   22  C   UNK     0     -29.436  -0.112  13.568  0.00  0.00     0.022 A 
HETATM   23  N   UNK     0     -28.664  -0.462  14.605  0.00  0.00    -0.361 N 
HETATM   24  C   UNK     0     -28.271   0.661  15.238  0.00  0.00     0.021 A 
HETATM   25  C   UNK     0     -28.811   1.761  14.600  0.00  0.00    -0.031 A 
HETATM   26  C   UNK     0     -28.689   3.227  14.961  0.00  0.00     0.051 C 
HETATM   27  C   UNK     0     -29.561   1.292  13.528  0.00  0.00    -0.027 A 
HETATM   28  C   UNK     0     -27.314   0.779  16.413  0.00  0.00     0.115 C 
HETATM   29  H   UNK     0     -26.275  -1.907  15.791  0.00  0.00     0.165 HD
HETATM   30  H   UNK     0     -24.996  -1.590  12.664  0.00  0.00     0.165 HD
HETATM   31  H   UNK     0     -27.105  -1.213  11.905  0.00  0.00     0.165 HD
HETATM   32  H   UNK     0     -28.425  -1.509  14.925  0.00  0.00     0.165 HD
ENDROOT
BRANCH   6  33
HETATM   33  C   UNK     0     -22.323   0.724  15.642  0.00  0.00     0.051 C 
BRANCH  33  34
HETATM   34  C   UNK     0     -22.107   1.374  14.296  0.00  0.00     0.114 C 
BRANCH  34  35
HETATM   35  C   UNK     0     -21.464   2.698  14.537  0.00  0.00     0.139 C 
HETATM   36  O   UNK     0     -21.394   3.168  15.710  0.00  0.00    -0.650 OA
BRANCH  35  37
HETATM   37  O   UNK     0     -20.919   3.464  13.514  0.00  0.00    -0.776 OA
HETATM   38  H   UNK     0     -20.186   4.134  13.680  0.00  0.00     0.167 HD
ENDBRANCH  35  37
ENDBRANCH  34  35
ENDBRANCH  33  34
ENDBRANCH   6  33
BRANCH  27  39
HETATM   39  C   UNK     0     -30.356   2.186  12.642  0.00  0.00     0.051 C 
BRANCH  39  40
HETATM   40  C   UNK     0     -29.750   2.639  11.390  0.00  0.00     0.114 C 
BRANCH  40  41
HETATM   41  C   UNK     0     -30.458   2.591  10.130  0.00  0.00     0.139 C 
HETATM   42  O   UNK     0     -30.287   3.411   9.219  0.00  0.00    -0.650 OA
BRANCH  41  43
HETATM   43  O   UNK     0     -31.404   1.551   9.909  0.00  0.00    -0.776 OA
HETATM   44  H   UNK     0     -32.365   1.811  10.099  0.00  0.00     0.167 HD
ENDBRANCH  41  43
ENDBRANCH  40  41
ENDBRANCH  39  40
ENDBRANCH  27  39
BRANCH  11  45
HETATM   45  C   UNK     0     -24.601  -6.310  12.408  0.00  0.00     0.051 C 
BRANCH  45  46
HETATM   46  C   UNK     0     -25.774  -7.029  12.967  0.00  0.00     0.114 C 
BRANCH  46  47
HETATM   47  C   UNK     0     -25.745  -8.415  12.416  0.00  0.00     0.139 C 
HETATM   48  O   UNK     0     -25.858  -8.569  11.192  0.00  0.00    -0.650 OA
BRANCH  47  49
HETATM   49  O   UNK     0     -25.598  -9.497  13.246  0.00  0.00    -0.776 OA
HETATM   50  H   UNK     0     -26.388  -9.898  13.766  0.00  0.00     0.167 HD
ENDBRANCH  47  49
ENDBRANCH  46  47
ENDBRANCH  45  46
ENDBRANCH  11  45
BRANCH  18  51
HETATM   51  C   UNK     0     -31.058  -3.789  11.564  0.00  0.00     0.051 C 
BRANCH  51  52
HETATM   52  C   UNK     0     -31.323  -4.355  12.952  0.00  0.00     0.114 C 
BRANCH  52  53
HETATM   53  C   UNK     0     -32.760  -4.594  13.183  0.00  0.00     0.139 C 
HETATM   54  O   UNK     0     -33.475  -3.687  13.638  0.00  0.00    -0.650 OA
BRANCH  53  55
HETATM   55  O   UNK     0     -33.300  -5.824  12.896  0.00  0.00    -0.776 OA
HETATM   56  H   UNK     0     -34.261  -6.018  12.741  0.00  0.00     0.167 HD
ENDBRANCH  53  55
ENDBRANCH  52  53
ENDBRANCH  51  52
ENDBRANCH  18  51
TORSDOF 16
ENDMDL
