MODEL 1
REMARK VINA RESULT:      -8.8      0.000      0.000
REMARK  28 active torsions:
REMARK  status: ('A' for Active; 'I' for Inactive)
REMARK    1  A    between atoms: C_2  and  O_3 
REMARK    2  A    between atoms: C_2  and  C_4 
REMARK    3  A    between atoms: C_4  and  C_5 
REMARK    4  A    between atoms: C_5  and  C_6 
REMARK    5  A    between atoms: C_7  and  C_8 
REMARK    6  A    between atoms: C_8  and  C_9 
REMARK    7  A    between atoms: C_9  and  O_11 
REMARK    8  A    between atoms: C_28  and  C_29 
REMARK    9  A    between atoms: C_29  and  C_30 
REMARK   10  A    between atoms: C_30  and  O_32 
REMARK   11  A    between atoms: C_33  and  C_34 
REMARK   12  A    between atoms: C_34  and  C_35 
REMARK   13  A    between atoms: C_35  and  C_36 
REMARK   14  A    between atoms: C_36  and  O_38 
REMARK   15  A    between atoms: C_39  and  C_40 
REMARK   16  A    between atoms: C_40  and  C_41 
REMARK   17  A    between atoms: C_41  and  C_42 
REMARK   18  A    between atoms: C_42  and  O_44 
REMARK   19  A    between atoms: C_45  and  C_46 
REMARK   20  A    between atoms: C_46  and  C_47 
REMARK   21  A    between atoms: C_47  and  O_49 
REMARK   22  A    between atoms: C_50  and  C_51 
REMARK   23  A    between atoms: C_51  and  C_52 
REMARK   24  A    between atoms: C_52  and  O_54 
REMARK   25  A    between atoms: C_55  and  C_56 
REMARK   26  A    between atoms: C_56  and  C_57 
REMARK   27  A    between atoms: C_57  and  C_58 
REMARK   28  A    between atoms: C_58  and  O_60 
ROOT
ATOM      1  O   UNK d   0     -18.319  27.178  24.138  0.00  0.00    -0.650 OA
ATOM      2  C   UNK d   0     -18.844  26.883  23.042  0.00  0.00     0.139 C 
ENDROOT
BRANCH   2   3
ATOM      3  O   UNK d   0     -20.211  26.772  22.958  0.00  0.00    -0.776 OA
ATOM      4  H   UNK d   0     -20.818  27.175  23.675  0.00  0.00     0.167 HD
ENDBRANCH   2   3
BRANCH   2   5
ATOM      5  C   UNK d   0     -17.992  26.653  21.841  0.00  0.00     0.115 C 
BRANCH   5   6
ATOM      6  C   UNK d   0     -17.788  27.945  21.097  0.00  0.00     0.052 C 
BRANCH   6   7
ATOM      7  C   UNK d   0     -19.080  28.525  20.574  0.00  0.00    -0.020 A 
ATOM      8  C   UNK d   0     -19.673  29.626  20.959  0.00  0.00    -0.011 A 
ATOM      9  C   UNK d   0     -20.891  29.770  20.179  0.00  0.00     0.067 A 
ATOM     10  C   UNK d   0     -21.930  30.710  20.088  0.00  0.00     0.062 C 
ATOM     11  N   UNK d   0     -20.963  28.709  19.348  0.00  0.00    -0.248 NA
ATOM     12  C   UNK d   0     -22.886  30.821  19.072  0.00  0.00     0.041 A 
ATOM     13  N   UNK d   0     -23.602  29.884  18.422  0.00  0.00    -0.355 N 
ATOM     14  C   UNK d   0     -23.170  32.093  18.542  0.00  0.00    -0.022 A 
ATOM     15  C   UNK d   0     -24.327  30.527  17.488  0.00  0.00     0.042 A 
ATOM     16  H   UNK d   0     -23.610  28.792  18.633  0.00  0.00     0.166 HD
ATOM     17  C   UNK d   0     -25.242  30.029  16.539  0.00  0.00     0.062 C 
ATOM     18  C   UNK d   0     -24.082  31.914  17.532  0.00  0.00    -0.013 A 
ATOM     19  C   UNK d   0     -25.125  28.935  15.721  0.00  0.00     0.067 A 
ATOM     20  N   UNK d   0     -24.114  28.099  15.969  0.00  0.00    -0.248 NA
ATOM     21  C   UNK d   0     -25.843  28.408  14.572  0.00  0.00    -0.011 A 
ATOM     22  C   UNK d   0     -24.117  27.065  15.065  0.00  0.00     0.066 A 
ATOM     23  C   UNK d   0     -23.136  26.098  15.231  0.00  0.00     0.062 C 
ATOM     24  C   UNK d   0     -25.245  27.316  14.190  0.00  0.00    -0.020 A 
ATOM     25  C   UNK d   0     -22.193  25.998  16.266  0.00  0.00     0.041 A 
ATOM     26  N   UNK d   0     -21.471  26.927  16.902  0.00  0.00    -0.355 N 
ATOM     27  C   UNK d   0     -21.912  24.722  16.801  0.00  0.00    -0.022 A 
ATOM     28  C   UNK d   0     -20.740  26.287  17.829  0.00  0.00     0.042 A 
ATOM     29  H   UNK d   0     -21.456  28.023  16.682  0.00  0.00     0.166 HD
ATOM     30  C   UNK d   0     -19.820  26.769  18.773  0.00  0.00     0.062 C 
ATOM     31  C   UNK d   0     -20.994  24.896  17.791  0.00  0.00    -0.013 A 
ATOM     32  C   UNK d   0     -19.903  27.923  19.536  0.00  0.00     0.066 A 
BRANCH   8  33
ATOM     33  C   UNK d   0     -19.211  30.564  21.998  0.00  0.00     0.151 C 
BRANCH  33  34
ATOM     34  C   UNK d   0     -20.183  30.725  23.095  0.00  0.00     0.143 C 
ATOM     35  O   UNK d   0     -20.670  29.737  23.664  0.00  0.00    -0.650 OA
BRANCH  34  36
ATOM     36  O   UNK d   0     -20.554  31.990  23.489  0.00  0.00    -0.776 OA
ATOM     37  H   UNK d   0     -21.541  32.229  23.655  0.00  0.00     0.167 HD
ENDBRANCH  34  36
ENDBRANCH  33  34
ENDBRANCH   8  33
BRANCH  31  38
ATOM     38  C   UNK d   0     -20.402  23.810  18.659  0.00  0.00     0.151 C 
BRANCH  38  39
ATOM     39  C   UNK d   0     -21.226  23.497  19.807  0.00  0.00     0.143 C 
ATOM     40  O   UNK d   0     -21.944  24.347  20.362  0.00  0.00    -0.650 OA
BRANCH  39  41
ATOM     41  O   UNK d   0     -21.226  22.200  20.319  0.00  0.00    -0.776 OA
ATOM     42  H   UNK d   0     -22.141  21.773  20.494  0.00  0.00     0.167 HD
ENDBRANCH  39  41
ENDBRANCH  38  39
ENDBRANCH  31  38
BRANCH  27  43
ATOM     43  C   UNK d   0     -22.470  23.375  16.413  0.00  0.00     0.052 C 
BRANCH  43  44
ATOM     44  C   UNK d   0     -21.596  22.626  15.459  0.00  0.00     0.115 C 
BRANCH  44  45
ATOM     45  C   UNK d   0     -22.469  22.188  14.339  0.00  0.00     0.139 C 
ATOM     46  O   UNK d   0     -23.207  21.188  14.520  0.00  0.00    -0.650 OA
BRANCH  45  47
ATOM     47  O   UNK d   0     -22.502  22.833  13.122  0.00  0.00    -0.776 OA
ATOM     48  H   UNK d   0     -23.033  23.705  12.964  0.00  0.00     0.167 HD
ENDBRANCH  45  47
ENDBRANCH  44  45
ENDBRANCH  43  44
ENDBRANCH  27  43
BRANCH  24  49
ATOM     49  C   UNK d   0     -25.663  26.438  13.084  0.00  0.00     0.052 C 
BRANCH  49  50
ATOM     50  C   UNK d   0     -26.482  25.287  13.609  0.00  0.00     0.115 C 
BRANCH  50  51
ATOM     51  C   UNK d   0     -25.855  23.972  13.612  0.00  0.00     0.139 C 
ATOM     52  O   UNK d   0     -25.781  23.260  14.642  0.00  0.00    -0.650 OA
BRANCH  51  53
ATOM     53  O   UNK d   0     -25.309  23.469  12.441  0.00  0.00    -0.776 OA
ATOM     54  H   UNK d   0     -25.810  22.746  11.955  0.00  0.00     0.167 HD
ENDBRANCH  51  53
ENDBRANCH  50  51
ENDBRANCH  49  50
ENDBRANCH  24  49
BRANCH  21  55
ATOM     55  C   UNK d   0     -27.054  29.048  13.978  0.00  0.00     0.151 C 
BRANCH  55  56
ATOM     56  C   UNK d   0     -28.295  28.571  14.607  0.00  0.00     0.143 C 
ATOM     57  O   UNK d   0     -29.019  27.696  14.093  0.00  0.00    -0.650 OA
BRANCH  56  58
ATOM     58  O   UNK d   0     -28.660  29.131  15.830  0.00  0.00    -0.776 OA
ATOM     59  H   UNK d   0     -27.928  29.709  16.281  0.00  0.00     0.167 HD
ENDBRANCH  56  58
ENDBRANCH  55  56
ENDBRANCH  21  55
BRANCH  18  60
ATOM     60  C   UNK d   0     -24.660  33.019  16.683  0.00  0.00     0.151 C 
BRANCH  60  61
ATOM     61  C   UNK d   0     -23.805  33.098  15.488  0.00  0.00     0.143 C 
ATOM     62  O   UNK d   0     -23.882  32.406  14.473  0.00  0.00    -0.650 OA
BRANCH  61  63
ATOM     63  O   UNK d   0     -22.792  34.086  15.537  0.00  0.00    -0.776 OA
ATOM     64  H   UNK d   0     -22.786  34.787  16.256  0.00  0.00     0.167 HD
ENDBRANCH  61  63
ENDBRANCH  60  61
ENDBRANCH  18  60
BRANCH  14  65
ATOM     65  C   UNK d   0     -22.724  33.459  18.977  0.00  0.00     0.052 C 
BRANCH  65  66
ATOM     66  C   UNK d   0     -21.259  33.542  19.224  0.00  0.00     0.115 C 
BRANCH  66  67
ATOM     67  C   UNK d   0     -20.389  34.028  18.191  0.00  0.00     0.139 C 
ATOM     68  O   UNK d   0     -20.820  34.956  17.412  0.00  0.00    -0.650 OA
BRANCH  67  69
ATOM     69  O   UNK d   0     -19.089  33.613  17.905  0.00  0.00    -0.776 OA
ATOM     70  H   UNK d   0     -18.918  32.599  17.969  0.00  0.00     0.167 HD
ENDBRANCH  67  69
ENDBRANCH  66  67
ENDBRANCH  65  66
ENDBRANCH  14  65
ENDBRANCH   6   7
ENDBRANCH   5   6
ENDBRANCH   2   5
TORSDOF 28
ENDMDL
MODEL 2
REMARK VINA RESULT:      -8.1      2.196      8.082
REMARK  28 active torsions:
REMARK  status: ('A' for Active; 'I' for Inactive)
REMARK    1  A    between atoms: C_2  and  O_3 
REMARK    2  A    between atoms: C_2  and  C_4 
REMARK    3  A    between atoms: C_4  and  C_5 
REMARK    4  A    between atoms: C_5  and  C_6 
REMARK    5  A    between atoms: C_7  and  C_8 
REMARK    6  A    between atoms: C_8  and  C_9 
REMARK    7  A    between atoms: C_9  and  O_11 
REMARK    8  A    between atoms: C_28  and  C_29 
REMARK    9  A    between atoms: C_29  and  C_30 
REMARK   10  A    between atoms: C_30  and  O_32 
REMARK   11  A    between atoms: C_33  and  C_34 
REMARK   12  A    between atoms: C_34  and  C_35 
REMARK   13  A    between atoms: C_35  and  C_36 
REMARK   14  A    between atoms: C_36  and  O_38 
REMARK   15  A    between atoms: C_39  and  C_40 
REMARK   16  A    between atoms: C_40  and  C_41 
REMARK   17  A    between atoms: C_41  and  C_42 
REMARK   18  A    between atoms: C_42  and  O_44 
REMARK   19  A    between atoms: C_45  and  C_46 
REMARK   20  A    between atoms: C_46  and  C_47 
REMARK   21  A    between atoms: C_47  and  O_49 
REMARK   22  A    between atoms: C_50  and  C_51 
REMARK   23  A    between atoms: C_51  and  C_52 
REMARK   24  A    between atoms: C_52  and  O_54 
REMARK   25  A    between atoms: C_55  and  C_56 
REMARK   26  A    between atoms: C_56  and  C_57 
REMARK   27  A    between atoms: C_57  and  C_58 
REMARK   28  A    between atoms: C_58  and  O_60 
ROOT
ATOM      1  O   UNK d   0     -16.906  23.651  24.540  0.00  0.00    -0.650 OA
ATOM      2  C   UNK d   0     -17.781  22.985  23.943  0.00  0.00     0.139 C 
ENDROOT
BRANCH   2   3
ATOM      3  O   UNK d   0     -17.928  21.651  24.234  0.00  0.00    -0.776 OA
ATOM      4  H   UNK d   0     -18.828  21.272  24.537  0.00  0.00     0.167 HD
ENDBRANCH   2   3
BRANCH   2   5
ATOM      5  C   UNK d   0     -18.654  23.638  22.926  0.00  0.00     0.115 C 
BRANCH   5   6
ATOM      6  C   UNK d   0     -19.392  22.596  22.131  0.00  0.00     0.052 C 
BRANCH   6   7
ATOM      7  C   UNK d   0     -19.816  23.095  20.771  0.00  0.00    -0.020 A 
ATOM      8  C   UNK d   0     -19.697  22.479  19.622  0.00  0.00    -0.011 A 
ATOM      9  C   UNK d   0     -20.235  23.351  18.592  0.00  0.00     0.067 A 
ATOM     10  C   UNK d   0     -20.420  23.283  17.202  0.00  0.00     0.062 C 
ATOM     11  N   UNK d   0     -20.655  24.480  19.202  0.00  0.00    -0.248 NA
ATOM     12  C   UNK d   0     -21.217  24.118  16.411  0.00  0.00     0.041 A 
ATOM     13  N   UNK d   0     -21.386  25.454  16.424  0.00  0.00    -0.355 N 
ATOM     14  C   UNK d   0     -22.061  23.539  15.446  0.00  0.00    -0.022 A 
ATOM     15  C   UNK d   0     -22.321  25.736  15.496  0.00  0.00     0.042 A 
ATOM     16  H   UNK d   0     -20.842  26.184  17.061  0.00  0.00     0.166 HD
ATOM     17  C   UNK d   0     -22.870  26.972  15.100  0.00  0.00     0.062 C 
ATOM     18  C   UNK d   0     -22.768  24.560  14.863  0.00  0.00    -0.013 A 
ATOM     19  C   UNK d   0     -23.303  28.013  15.880  0.00  0.00     0.067 A 
ATOM     20  N   UNK d   0     -22.999  27.963  17.179  0.00  0.00    -0.248 NA
ATOM     21  C   UNK d   0     -24.066  29.232  15.666  0.00  0.00    -0.011 A 
ATOM     22  C   UNK d   0     -23.509  29.059  17.831  0.00  0.00     0.066 A 
ATOM     23  C   UNK d   0     -23.234  29.153  19.187  0.00  0.00     0.062 C 
ATOM     24  C   UNK d   0     -24.186  29.837  16.812  0.00  0.00    -0.020 A 
ATOM     25  C   UNK d   0     -22.420  28.311  19.960  0.00  0.00     0.041 A 
ATOM     26  N   UNK d   0     -22.263  26.982  19.958  0.00  0.00    -0.355 N 
ATOM     27  C   UNK d   0     -21.570  28.893  20.926  0.00  0.00    -0.022 A 
ATOM     28  C   UNK d   0     -21.338  26.697  20.888  0.00  0.00     0.042 A 
ATOM     29  H   UNK d   0     -22.819  26.248  19.324  0.00  0.00     0.166 HD
ATOM     30  C   UNK d   0     -20.789  25.472  21.300  0.00  0.00     0.062 C 
ATOM     31  C   UNK d   0     -20.881  27.879  21.517  0.00  0.00    -0.013 A 
ATOM     32  C   UNK d   0     -20.432  24.388  20.513  0.00  0.00     0.066 A 
BRANCH   8  33
ATOM     33  C   UNK d   0     -19.118  21.143  19.390  0.00  0.00     0.151 C 
BRANCH  33  34
ATOM     34  C   UNK d   0     -20.054  20.051  19.715  0.00  0.00     0.143 C 
ATOM     35  O   UNK d   0     -19.762  19.193  20.560  0.00  0.00    -0.650 OA
BRANCH  34  36
ATOM     36  O   UNK d   0     -21.267  19.987  19.069  0.00  0.00    -0.776 OA
ATOM     37  H   UNK d   0     -21.499  19.201  18.446  0.00  0.00     0.167 HD
ENDBRANCH  34  36
ENDBRANCH  33  34
ENDBRANCH   8  33
BRANCH  31  38
ATOM     38  C   UNK d   0     -19.842  28.023  22.605  0.00  0.00     0.151 C 
BRANCH  38  39
ATOM     39  C   UNK d   0     -18.488  28.006  22.094  0.00  0.00     0.143 C 
ATOM     40  O   UNK d   0     -17.697  27.079  22.337  0.00  0.00    -0.650 OA
BRANCH  39  41
ATOM     41  O   UNK d   0     -18.042  29.061  21.298  0.00  0.00    -0.776 OA
ATOM     42  H   UNK d   0     -18.358  29.070  20.323  0.00  0.00     0.167 HD
ENDBRANCH  39  41
ENDBRANCH  38  39
ENDBRANCH  31  38
BRANCH  27  43
ATOM     43  C   UNK d   0     -21.396  30.344  21.299  0.00  0.00     0.052 C 
BRANCH  43  44
ATOM     44  C   UNK d   0     -20.649  31.133  20.272  0.00  0.00     0.115 C 
BRANCH  44  45
ATOM     45  C   UNK d   0     -21.376  32.419  20.114  0.00  0.00     0.139 C 
ATOM     46  O   UNK d   0     -22.467  32.561  20.719  0.00  0.00    -0.650 OA
BRANCH  45  47
ATOM     47  O   UNK d   0     -20.900  33.456  19.340  0.00  0.00    -0.776 OA
ATOM     48  H   UNK d   0     -21.491  34.248  19.040  0.00  0.00     0.167 HD
ENDBRANCH  45  47
ENDBRANCH  44  45
ENDBRANCH  43  44
ENDBRANCH  27  43
BRANCH  24  49
ATOM     49  C   UNK d   0     -24.854  31.129  17.046  0.00  0.00     0.052 C 
BRANCH  49  50
ATOM     50  C   UNK d   0     -23.860  32.154  17.527  0.00  0.00     0.115 C 
BRANCH  50  51
ATOM     51  C   UNK d   0     -23.564  33.264  16.630  0.00  0.00     0.139 C 
ATOM     52  O   UNK d   0     -22.418  33.762  16.526  0.00  0.00    -0.650 OA
BRANCH  51  53
ATOM     53  O   UNK d   0     -24.576  33.808  15.855  0.00  0.00    -0.776 OA
ATOM     54  H   UNK d   0     -25.273  34.371  16.310  0.00  0.00     0.167 HD
ENDBRANCH  51  53
ENDBRANCH  50  51
ENDBRANCH  49  50
ENDBRANCH  24  49
BRANCH  21  55
ATOM     55  C   UNK d   0     -24.590  29.667  14.338  0.00  0.00     0.151 C 
BRANCH  55  56
ATOM     56  C   UNK d   0     -25.776  28.896  13.934  0.00  0.00     0.143 C 
ATOM     57  O   UNK d   0     -25.716  27.920  13.161  0.00  0.00    -0.650 OA
BRANCH  56  58
ATOM     58  O   UNK d   0     -27.011  29.288  14.449  0.00  0.00    -0.776 OA
ATOM     59  H   UNK d   0     -27.394  30.162  14.046  0.00  0.00     0.167 HD
ENDBRANCH  56  58
ENDBRANCH  55  56
ENDBRANCH  21  55
BRANCH  18  60
ATOM     60  C   UNK d   0     -23.799  24.388  13.775  0.00  0.00     0.151 C 
BRANCH  60  61
ATOM     61  C   UNK d   0     -25.089  24.228  14.463  0.00  0.00     0.143 C 
ATOM     62  O   UNK d   0     -25.695  25.081  15.112  0.00  0.00    -0.650 OA
BRANCH  61  63
ATOM     63  O   UNK d   0     -25.676  22.944  14.351  0.00  0.00    -0.776 OA
ATOM     64  H   UNK d   0     -25.125  22.142  14.101  0.00  0.00     0.167 HD
ENDBRANCH  61  63
ENDBRANCH  60  61
ENDBRANCH  18  60
BRANCH  14  65
ATOM     65  C   UNK d   0     -22.176  22.118  14.970  0.00  0.00     0.052 C 
BRANCH  65  66
ATOM     66  C   UNK d   0     -23.112  21.304  15.790  0.00  0.00     0.115 C 
BRANCH  66  67
ATOM     67  C   UNK d   0     -23.668  20.096  15.248  0.00  0.00     0.139 C 
ATOM     68  O   UNK d   0     -24.942  20.027  15.084  0.00  0.00    -0.650 OA
BRANCH  67  69
ATOM     69  O   UNK d   0     -22.988  18.943  14.860  0.00  0.00    -0.776 OA
ATOM     70  H   UNK d   0     -22.460  18.463  15.603  0.00  0.00     0.167 HD
ENDBRANCH  67  69
ENDBRANCH  66  67
ENDBRANCH  65  66
ENDBRANCH  14  65
ENDBRANCH   6   7
ENDBRANCH   5   6
ENDBRANCH   2   5
TORSDOF 28
ENDMDL
MODEL 3
REMARK VINA RESULT:      -7.8     22.045     25.357
REMARK  28 active torsions:
REMARK  status: ('A' for Active; 'I' for Inactive)
REMARK    1  A    between atoms: C_2  and  O_3 
REMARK    2  A    between atoms: C_2  and  C_4 
REMARK    3  A    between atoms: C_4  and  C_5 
REMARK    4  A    between atoms: C_5  and  C_6 
REMARK    5  A    between atoms: C_7  and  C_8 
REMARK    6  A    between atoms: C_8  and  C_9 
REMARK    7  A    between atoms: C_9  and  O_11 
REMARK    8  A    between atoms: C_28  and  C_29 
REMARK    9  A    between atoms: C_29  and  C_30 
REMARK   10  A    between atoms: C_30  and  O_32 
REMARK   11  A    between atoms: C_33  and  C_34 
REMARK   12  A    between atoms: C_34  and  C_35 
REMARK   13  A    between atoms: C_35  and  C_36 
REMARK   14  A    between atoms: C_36  and  O_38 
REMARK   15  A    between atoms: C_39  and  C_40 
REMARK   16  A    between atoms: C_40  and  C_41 
REMARK   17  A    between atoms: C_41  and  C_42 
REMARK   18  A    between atoms: C_42  and  O_44 
REMARK   19  A    between atoms: C_45  and  C_46 
REMARK   20  A    between atoms: C_46  and  C_47 
REMARK   21  A    between atoms: C_47  and  O_49 
REMARK   22  A    between atoms: C_50  and  C_51 
REMARK   23  A    between atoms: C_51  and  C_52 
REMARK   24  A    between atoms: C_52  and  O_54 
REMARK   25  A    between atoms: C_55  and  C_56 
REMARK   26  A    between atoms: C_56  and  C_57 
REMARK   27  A    between atoms: C_57  and  C_58 
REMARK   28  A    between atoms: C_58  and  O_60 
ROOT
ATOM      1  O   UNK d   0     -30.103   4.199   9.948  0.00  0.00    -0.650 OA
ATOM      2  C   UNK d   0     -30.447   5.205   9.290  0.00  0.00     0.139 C 
ENDROOT
BRANCH   2   3
ATOM      3  O   UNK d   0     -29.602   6.287   9.222  0.00  0.00    -0.776 OA
ATOM      4  H   UNK d   0     -29.277   6.756  10.069  0.00  0.00     0.167 HD
ENDBRANCH   2   3
BRANCH   2   5
ATOM      5  C   UNK d   0     -31.761   5.226   8.588  0.00  0.00     0.115 C 
BRANCH   5   6
ATOM      6  C   UNK d   0     -31.559   5.067   7.105  0.00  0.00     0.052 C 
BRANCH   6   7
ATOM      7  C   UNK d   0     -32.236   6.155   6.306  0.00  0.00    -0.020 A 
ATOM      8  C   UNK d   0     -33.507   6.257   6.012  0.00  0.00    -0.011 A 
ATOM      9  C   UNK d   0     -33.685   7.462   5.220  0.00  0.00     0.067 A 
ATOM     10  C   UNK d   0     -34.766   8.133   4.626  0.00  0.00     0.062 C 
ATOM     11  N   UNK d   0     -32.469   8.029   5.074  0.00  0.00    -0.248 NA
ATOM     12  C   UNK d   0     -34.782   9.442   4.132  0.00  0.00     0.041 A 
ATOM     13  N   UNK d   0     -33.883  10.122   3.395  0.00  0.00    -0.355 N 
ATOM     14  C   UNK d   0     -35.864  10.279   4.458  0.00  0.00    -0.022 A 
ATOM     15  C   UNK d   0     -34.363  11.372   3.252  0.00  0.00     0.042 A 
ATOM     16  H   UNK d   0     -32.938   9.721   2.967  0.00  0.00     0.166 HD
ATOM     17  C   UNK d   0     -33.826  12.485   2.575  0.00  0.00     0.062 C 
ATOM     18  C   UNK d   0     -35.603  11.509   3.906  0.00  0.00    -0.013 A 
ATOM     19  C   UNK d   0     -32.540  12.961   2.583  0.00  0.00     0.067 A 
ATOM     20  N   UNK d   0     -31.609  12.178   3.135  0.00  0.00    -0.248 NA
ATOM     21  C   UNK d   0     -31.871  14.171   2.135  0.00  0.00    -0.011 A 
ATOM     22  C   UNK d   0     -30.381  12.790   3.083  0.00  0.00     0.066 A 
ATOM     23  C   UNK d   0     -29.311  12.068   3.592  0.00  0.00     0.062 C 
ATOM     24  C   UNK d   0     -30.608  14.067   2.435  0.00  0.00    -0.020 A 
ATOM     25  C   UNK d   0     -29.313  10.750   4.072  0.00  0.00     0.041 A 
ATOM     26  N   UNK d   0     -30.199  10.078   4.817  0.00  0.00    -0.355 N 
ATOM     27  C   UNK d   0     -28.229   9.908   3.740  0.00  0.00    -0.022 A 
ATOM     28  C   UNK d   0     -29.718   8.834   4.968  0.00  0.00     0.042 A 
ATOM     29  H   UNK d   0     -31.144  10.485   5.255  0.00  0.00     0.166 HD
ATOM     30  C   UNK d   0     -30.237   7.720   5.647  0.00  0.00     0.062 C 
ATOM     31  C   UNK d   0     -28.478   8.694   4.302  0.00  0.00    -0.013 A 
ATOM     32  C   UNK d   0     -31.554   7.292   5.705  0.00  0.00     0.066 A 
BRANCH   8  33
ATOM     33  C   UNK d   0     -34.582   5.325   6.400  0.00  0.00     0.151 C 
BRANCH  33  34
ATOM     34  C   UNK d   0     -34.764   4.229   5.432  0.00  0.00     0.143 C 
ATOM     35  O   UNK d   0     -35.261   4.441   4.316  0.00  0.00    -0.650 OA
BRANCH  34  36
ATOM     36  O   UNK d   0     -34.377   2.954   5.775  0.00  0.00    -0.776 OA
ATOM     37  H   UNK d   0     -34.978   2.142   5.578  0.00  0.00     0.167 HD
ENDBRANCH  34  36
ENDBRANCH  33  34
ENDBRANCH   8  33
BRANCH  31  38
ATOM     38  C   UNK d   0     -27.598   7.469   4.204  0.00  0.00     0.151 C 
BRANCH  38  39
ATOM     39  C   UNK d   0     -26.308   7.652   4.833  0.00  0.00     0.143 C 
ATOM     40  O   UNK d   0     -26.186   7.859   6.054  0.00  0.00    -0.650 OA
BRANCH  39  41
ATOM     41  O   UNK d   0     -25.151   7.597   4.056  0.00  0.00    -0.776 OA
ATOM     42  H   UNK d   0     -24.258   7.667   4.553  0.00  0.00     0.167 HD
ENDBRANCH  39  41
ENDBRANCH  38  39
ENDBRANCH  31  38
BRANCH  27  43
ATOM     43  C   UNK d   0     -26.994  10.211   2.929  0.00  0.00     0.052 C 
BRANCH  43  44
ATOM     44  C   UNK d   0     -27.207  10.077   1.456  0.00  0.00     0.115 C 
BRANCH  44  45
ATOM     45  C   UNK d   0     -26.753   8.711   1.085  0.00  0.00     0.139 C 
ATOM     46  O   UNK d   0     -27.568   7.955   0.501  0.00  0.00    -0.650 OA
BRANCH  45  47
ATOM     47  O   UNK d   0     -25.482   8.249   1.348  0.00  0.00    -0.776 OA
ATOM     48  H   UNK d   0     -24.736   8.223   0.634  0.00  0.00     0.167 HD
ENDBRANCH  45  47
ENDBRANCH  44  45
ENDBRANCH  43  44
ENDBRANCH  27  43
BRANCH  24  49
ATOM     49  C   UNK d   0     -29.558  15.053   2.127  0.00  0.00     0.052 C 
BRANCH  49  50
ATOM     50  C   UNK d   0     -29.504  15.314   0.644  0.00  0.00     0.115 C 
BRANCH  50  51
ATOM     51  C   UNK d   0     -29.734  16.683   0.201  0.00  0.00     0.139 C 
ATOM     52  O   UNK d   0     -29.667  17.025  -1.003  0.00  0.00    -0.650 OA
BRANCH  51  53
ATOM     53  O   UNK d   0     -30.038  17.664   1.133  0.00  0.00    -0.776 OA
ATOM     54  H   UNK d   0     -29.711  18.598   0.963  0.00  0.00     0.167 HD
ENDBRANCH  51  53
ENDBRANCH  50  51
ENDBRANCH  49  50
ENDBRANCH  24  49
BRANCH  21  55
ATOM     55  C   UNK d   0     -32.562  15.303   1.451  0.00  0.00     0.151 C 
BRANCH  55  56
ATOM     56  C   UNK d   0     -33.042  16.314   2.405  0.00  0.00     0.143 C 
ATOM     57  O   UNK d   0     -32.278  16.937   3.169  0.00  0.00    -0.650 OA
BRANCH  56  58
ATOM     58  O   UNK d   0     -34.411  16.574   2.443  0.00  0.00    -0.776 OA
ATOM     59  H   UNK d   0     -34.662  17.570   2.573  0.00  0.00     0.167 HD
ENDBRANCH  56  58
ENDBRANCH  55  56
ENDBRANCH  21  55
BRANCH  18  60
ATOM     60  C   UNK d   0     -36.502  12.715   4.018  0.00  0.00     0.151 C 
BRANCH  60  61
ATOM     61  C   UNK d   0     -37.040  12.945   2.668  0.00  0.00     0.143 C 
ATOM     62  O   UNK d   0     -37.335  14.027   2.161  0.00  0.00    -0.650 OA
BRANCH  61  63
ATOM     63  O   UNK d   0     -37.229  11.778   1.888  0.00  0.00    -0.776 OA
ATOM     64  H   UNK d   0     -38.068  11.231   1.968  0.00  0.00     0.167 HD
ENDBRANCH  61  63
ENDBRANCH  60  61
ENDBRANCH  18  60
BRANCH  14  65
ATOM     65  C   UNK d   0     -37.157   9.981   5.162  0.00  0.00     0.052 C 
BRANCH  65  66
ATOM     66  C   UNK d   0     -37.727  11.166   5.858  0.00  0.00     0.115 C 
BRANCH  66  67
ATOM     67  C   UNK d   0     -39.143  11.401   5.821  0.00  0.00     0.139 C 
ATOM     68  O   UNK d   0     -39.562  12.577   5.513  0.00  0.00    -0.650 OA
BRANCH  67  69
ATOM     69  O   UNK d   0     -40.166  10.491   6.085  0.00  0.00    -0.776 OA
ATOM     70  H   UNK d   0     -39.980   9.814   6.840  0.00  0.00     0.167 HD
ENDBRANCH  67  69
ENDBRANCH  66  67
ENDBRANCH  65  66
ENDBRANCH  14  65
ENDBRANCH   6   7
ENDBRANCH   5   6
ENDBRANCH   2   5
TORSDOF 28
ENDMDL
MODEL 4
REMARK VINA RESULT:      -7.7      1.025      7.012
REMARK  28 active torsions:
REMARK  status: ('A' for Active; 'I' for Inactive)
REMARK    1  A    between atoms: C_2  and  O_3 
REMARK    2  A    between atoms: C_2  and  C_4 
REMARK    3  A    between atoms: C_4  and  C_5 
REMARK    4  A    between atoms: C_5  and  C_6 
REMARK    5  A    between atoms: C_7  and  C_8 
REMARK    6  A    between atoms: C_8  and  C_9 
REMARK    7  A    between atoms: C_9  and  O_11 
REMARK    8  A    between atoms: C_28  and  C_29 
REMARK    9  A    between atoms: C_29  and  C_30 
REMARK   10  A    between atoms: C_30  and  O_32 
REMARK   11  A    between atoms: C_33  and  C_34 
REMARK   12  A    between atoms: C_34  and  C_35 
REMARK   13  A    between atoms: C_35  and  C_36 
REMARK   14  A    between atoms: C_36  and  O_38 
REMARK   15  A    between atoms: C_39  and  C_40 
REMARK   16  A    between atoms: C_40  and  C_41 
REMARK   17  A    between atoms: C_41  and  C_42 
REMARK   18  A    between atoms: C_42  and  O_44 
REMARK   19  A    between atoms: C_45  and  C_46 
REMARK   20  A    between atoms: C_46  and  C_47 
REMARK   21  A    between atoms: C_47  and  O_49 
REMARK   22  A    between atoms: C_50  and  C_51 
REMARK   23  A    between atoms: C_51  and  C_52 
REMARK   24  A    between atoms: C_52  and  O_54 
REMARK   25  A    between atoms: C_55  and  C_56 
REMARK   26  A    between atoms: C_56  and  C_57 
REMARK   27  A    between atoms: C_57  and  C_58 
REMARK   28  A    between atoms: C_58  and  O_60 
ROOT
ATOM      1  O   UNK d   0     -22.049  29.842  23.830  0.00  0.00    -0.650 OA
ATOM      2  C   UNK d   0     -21.074  29.061  23.893  0.00  0.00     0.139 C 
ENDROOT
BRANCH   2   3
ATOM      3  O   UNK d   0     -21.297  27.705  23.917  0.00  0.00    -0.776 OA
ATOM      4  H   UNK d   0     -21.398  27.202  24.801  0.00  0.00     0.167 HD
ENDBRANCH   2   3
BRANCH   2   5
ATOM      5  C   UNK d   0     -19.685  29.599  23.943  0.00  0.00     0.115 C 
BRANCH   5   6
ATOM      6  C   UNK d   0     -19.343  30.270  22.640  0.00  0.00     0.052 C 
BRANCH   6   7
ATOM      7  C   UNK d   0     -19.685  29.418  21.441  0.00  0.00    -0.020 A 
ATOM      8  C   UNK d   0     -19.100  28.314  21.053  0.00  0.00    -0.011 A 
ATOM      9  C   UNK d   0     -19.768  27.858  19.845  0.00  0.00     0.067 A 
ATOM     10  C   UNK d   0     -19.646  26.765  18.972  0.00  0.00     0.062 C 
ATOM     11  N   UNK d   0     -20.743  28.747  19.566  0.00  0.00    -0.248 NA
ATOM     12  C   UNK d   0     -20.569  26.344  18.008  0.00  0.00     0.041 A 
ATOM     13  N   UNK d   0     -21.305  27.041  17.122  0.00  0.00    -0.355 N 
ATOM     14  C   UNK d   0     -20.880  24.976  17.916  0.00  0.00    -0.022 A 
ATOM     15  C   UNK d   0     -22.082  26.151  16.476  0.00  0.00     0.042 A 
ATOM     16  H   UNK d   0     -21.263  28.138  16.943  0.00  0.00     0.166 HD
ATOM     17  C   UNK d   0     -23.033  26.341  15.454  0.00  0.00     0.062 C 
ATOM     18  C   UNK d   0     -21.844  24.845  16.947  0.00  0.00    -0.013 A 
ATOM     19  C   UNK d   0     -24.014  27.295  15.356  0.00  0.00     0.067 A 
ATOM     20  N   UNK d   0     -23.962  28.308  16.225  0.00  0.00    -0.248 NA
ATOM     21  C   UNK d   0     -25.180  27.512  14.516  0.00  0.00    -0.011 A 
ATOM     22  C   UNK d   0     -25.010  29.170  16.016  0.00  0.00     0.066 A 
ATOM     23  C   UNK d   0     -25.058  30.292  16.830  0.00  0.00     0.062 C 
ATOM     24  C   UNK d   0     -25.761  28.608  14.910  0.00  0.00    -0.020 A 
ATOM     25  C   UNK d   0     -24.114  30.704  17.783  0.00  0.00     0.041 A 
ATOM     26  N   UNK d   0     -23.393  30.012  18.674  0.00  0.00    -0.355 N 
ATOM     27  C   UNK d   0     -23.798  32.077  17.872  0.00  0.00    -0.022 A 
ATOM     28  C   UNK d   0     -22.624  30.899  19.326  0.00  0.00     0.042 A 
ATOM     29  H   UNK d   0     -23.444  28.912  18.860  0.00  0.00     0.166 HD
ATOM     30  C   UNK d   0     -21.680  30.725  20.350  0.00  0.00     0.062 C 
ATOM     31  C   UNK d   0     -22.856  32.210  18.845  0.00  0.00    -0.013 A 
ATOM     32  C   UNK d   0     -20.747  29.710  20.489  0.00  0.00     0.066 A 
BRANCH   8  33
ATOM     33  C   UNK d   0     -17.963  27.639  21.705  0.00  0.00     0.151 C 
BRANCH  33  34
ATOM     34  C   UNK d   0     -18.384  26.542  22.595  0.00  0.00     0.143 C 
ATOM     35  O   UNK d   0     -18.323  26.663  23.827  0.00  0.00    -0.650 OA
BRANCH  34  36
ATOM     36  O   UNK d   0     -18.850  25.369  22.048  0.00  0.00    -0.776 OA
ATOM     37  H   UNK d   0     -18.579  25.077  21.099  0.00  0.00     0.167 HD
ENDBRANCH  34  36
ENDBRANCH  33  34
ENDBRANCH   8  33
BRANCH  31  38
ATOM     38  C   UNK d   0     -22.204  33.500  19.284  0.00  0.00     0.151 C 
BRANCH  38  39
ATOM     39  C   UNK d   0     -21.011  33.813  18.526  0.00  0.00     0.143 C 
ATOM     40  O   UNK d   0     -21.028  34.575  17.544  0.00  0.00    -0.650 OA
BRANCH  39  41
ATOM     41  O   UNK d   0     -19.792  33.246  18.899  0.00  0.00    -0.776 OA
ATOM     42  H   UNK d   0     -19.730  32.872  19.851  0.00  0.00     0.167 HD
ENDBRANCH  39  41
ENDBRANCH  38  39
ENDBRANCH  31  38
BRANCH  27  43
ATOM     43  C   UNK d   0     -24.349  33.239  17.084  0.00  0.00     0.052 C 
BRANCH  43  44
ATOM     44  C   UNK d   0     -24.649  32.900  15.661  0.00  0.00     0.115 C 
BRANCH  44  45
ATOM     45  C   UNK d   0     -24.225  34.069  14.847  0.00  0.00     0.139 C 
ATOM     46  O   UNK d   0     -23.161  34.656  15.164  0.00  0.00    -0.650 OA
BRANCH  45  47
ATOM     47  O   UNK d   0     -24.944  34.526  13.764  0.00  0.00    -0.776 OA
ATOM     48  H   UNK d   0     -24.504  34.780  12.865  0.00  0.00     0.167 HD
ENDBRANCH  45  47
ENDBRANCH  44  45
ENDBRANCH  43  44
ENDBRANCH  27  43
BRANCH  24  49
ATOM     49  C   UNK d   0     -26.958  29.221  14.309  0.00  0.00     0.052 C 
BRANCH  49  50
ATOM     50  C   UNK d   0     -28.198  28.478  14.734  0.00  0.00     0.115 C 
BRANCH  50  51
ATOM     51  C   UNK d   0     -28.518  28.478  16.155  0.00  0.00     0.139 C 
ATOM     52  O   UNK d   0     -28.526  27.432  16.847  0.00  0.00    -0.650 OA
BRANCH  51  53
ATOM     53  O   UNK d   0     -28.832  29.671  16.788  0.00  0.00    -0.776 OA
ATOM     54  H   UNK d   0     -28.281  30.483  16.573  0.00  0.00     0.167 HD
ENDBRANCH  51  53
ENDBRANCH  50  51
ENDBRANCH  49  50
ENDBRANCH  24  49
BRANCH  21  55
ATOM     55  C   UNK d   0     -25.589  26.604  13.404  0.00  0.00     0.151 C 
BRANCH  55  56
ATOM     56  C   UNK d   0     -25.892  25.247  13.884  0.00  0.00     0.143 C 
ATOM     57  O   UNK d   0     -26.696  25.022  14.810  0.00  0.00    -0.650 OA
BRANCH  56  58
ATOM     58  O   UNK d   0     -25.243  24.179  13.266  0.00  0.00    -0.776 OA
ATOM     59  H   UNK d   0     -25.575  23.963  12.308  0.00  0.00     0.167 HD
ENDBRANCH  56  58
ENDBRANCH  55  56
ENDBRANCH  21  55
BRANCH  18  60
ATOM     60  C   UNK d   0     -22.476  23.542  16.526  0.00  0.00     0.151 C 
BRANCH  60  61
ATOM     61  C   UNK d   0     -21.921  23.234  15.200  0.00  0.00     0.143 C 
ATOM     62  O   UNK d   0     -22.549  23.036  14.159  0.00  0.00    -0.650 OA
BRANCH  61  63
ATOM     63  O   UNK d   0     -20.508  23.162  15.140  0.00  0.00    -0.776 OA
ATOM     64  H   UNK d   0     -19.962  22.985  15.965  0.00  0.00     0.167 HD
ENDBRANCH  61  63
ENDBRANCH  60  61
ENDBRANCH  18  60
BRANCH  14  65
ATOM     65  C   UNK d   0     -20.272  23.783  18.599  0.00  0.00     0.052 C 
BRANCH  65  66
ATOM     66  C   UNK d   0     -21.102  23.270  19.722  0.00  0.00     0.115 C 
BRANCH  66  67
ATOM     67  C   UNK d   0     -21.953  24.171  20.447  0.00  0.00     0.139 C 
ATOM     68  O   UNK d   0     -23.225  24.082  20.280  0.00  0.00    -0.650 OA
BRANCH  67  69
ATOM     69  O   UNK d   0     -21.572  25.168  21.344  0.00  0.00    -0.776 OA
ATOM     70  H   UNK d   0     -22.259  25.921  21.496  0.00  0.00     0.167 HD
ENDBRANCH  67  69
ENDBRANCH  66  67
ENDBRANCH  65  66
ENDBRANCH  14  65
ENDBRANCH   6   7
ENDBRANCH   5   6
ENDBRANCH   2   5
TORSDOF 28
ENDMDL
MODEL 5
REMARK VINA RESULT:      -7.6      2.064      7.992
REMARK  28 active torsions:
REMARK  status: ('A' for Active; 'I' for Inactive)
REMARK    1  A    between atoms: C_2  and  O_3 
REMARK    2  A    between atoms: C_2  and  C_4 
REMARK    3  A    between atoms: C_4  and  C_5 
REMARK    4  A    between atoms: C_5  and  C_6 
REMARK    5  A    between atoms: C_7  and  C_8 
REMARK    6  A    between atoms: C_8  and  C_9 
REMARK    7  A    between atoms: C_9  and  O_11 
REMARK    8  A    between atoms: C_28  and  C_29 
REMARK    9  A    between atoms: C_29  and  C_30 
REMARK   10  A    between atoms: C_30  and  O_32 
REMARK   11  A    between atoms: C_33  and  C_34 
REMARK   12  A    between atoms: C_34  and  C_35 
REMARK   13  A    between atoms: C_35  and  C_36 
REMARK   14  A    between atoms: C_36  and  O_38 
REMARK   15  A    between atoms: C_39  and  C_40 
REMARK   16  A    between atoms: C_40  and  C_41 
REMARK   17  A    between atoms: C_41  and  C_42 
REMARK   18  A    between atoms: C_42  and  O_44 
REMARK   19  A    between atoms: C_45  and  C_46 
REMARK   20  A    between atoms: C_46  and  C_47 
REMARK   21  A    between atoms: C_47  and  O_49 
REMARK   22  A    between atoms: C_50  and  C_51 
REMARK   23  A    between atoms: C_51  and  C_52 
REMARK   24  A    between atoms: C_52  and  O_54 
REMARK   25  A    between atoms: C_55  and  C_56 
REMARK   26  A    between atoms: C_56  and  C_57 
REMARK   27  A    between atoms: C_57  and  C_58 
REMARK   28  A    between atoms: C_58  and  O_60 
ROOT
ATOM      1  O   UNK d   0     -16.415  23.904  24.880  0.00  0.00    -0.650 OA
ATOM      2  C   UNK d   0     -17.489  23.666  24.285  0.00  0.00     0.139 C 
ENDROOT
BRANCH   2   3
ATOM      3  O   UNK d   0     -17.957  22.375  24.229  0.00  0.00    -0.776 OA
ATOM      4  H   UNK d   0     -18.103  21.830  25.081  0.00  0.00     0.167 HD
ENDBRANCH   2   3
BRANCH   2   5
ATOM      5  C   UNK d   0     -18.250  24.775  23.642  0.00  0.00     0.115 C 
BRANCH   5   6
ATOM      6  C   UNK d   0     -19.666  24.344  23.375  0.00  0.00     0.052 C 
BRANCH   6   7
ATOM      7  C   UNK d   0     -20.054  24.488  21.922  0.00  0.00    -0.020 A 
ATOM      8  C   UNK d   0     -19.874  23.622  20.958  0.00  0.00    -0.011 A 
ATOM      9  C   UNK d   0     -20.399  24.203  19.734  0.00  0.00     0.067 A 
ATOM     10  C   UNK d   0     -20.530  23.799  18.396  0.00  0.00     0.062 C 
ATOM     11  N   UNK d   0     -20.874  25.428  20.044  0.00  0.00    -0.248 NA
ATOM     12  C   UNK d   0     -21.321  24.391  17.406  0.00  0.00     0.041 A 
ATOM     13  N   UNK d   0     -21.529  25.684  17.093  0.00  0.00    -0.355 N 
ATOM     14  C   UNK d   0     -22.111  23.568  16.583  0.00  0.00    -0.022 A 
ATOM     15  C   UNK d   0     -22.436  25.703  16.099  0.00  0.00     0.042 A 
ATOM     16  H   UNK d   0     -21.030  26.565  17.553  0.00  0.00     0.166 HD
ATOM     17  C   UNK d   0     -23.005  26.788  15.402  0.00  0.00     0.062 C 
ATOM     18  C   UNK d   0     -22.825  24.395  15.752  0.00  0.00    -0.013 A 
ATOM     19  C   UNK d   0     -23.497  27.968  15.897  0.00  0.00     0.067 A 
ATOM     20  N   UNK d   0     -23.241  28.240  17.179  0.00  0.00    -0.248 NA
ATOM     21  C   UNK d   0     -24.286  29.072  15.376  0.00  0.00    -0.011 A 
ATOM     22  C   UNK d   0     -23.806  29.440  17.535  0.00  0.00     0.066 A 
ATOM     23  C   UNK d   0     -23.584  29.864  18.837  0.00  0.00     0.062 C 
ATOM     24  C   UNK d   0     -24.467  29.928  16.340  0.00  0.00    -0.020 A 
ATOM     25  C   UNK d   0     -22.775  29.261  19.812  0.00  0.00     0.041 A 
ATOM     26  N   UNK d   0     -22.580  27.976  20.133  0.00  0.00    -0.355 N 
ATOM     27  C   UNK d   0     -21.979  30.088  20.635  0.00  0.00    -0.022 A 
ATOM     28  C   UNK d   0     -21.682  27.955  21.131  0.00  0.00     0.042 A 
ATOM     29  H   UNK d   0     -23.090  27.093  19.677  0.00  0.00     0.166 HD
ATOM     30  C   UNK d   0     -21.114  26.885  21.839  0.00  0.00     0.062 C 
ATOM     31  C   UNK d   0     -21.284  29.270  21.471  0.00  0.00    -0.013 A 
ATOM     32  C   UNK d   0     -20.696  25.659  21.345  0.00  0.00     0.066 A 
BRANCH   8  33
ATOM     33  C   UNK d   0     -19.248  22.291  21.070  0.00  0.00     0.151 C 
BRANCH  33  34
ATOM     34  C   UNK d   0     -20.154  21.282  21.648  0.00  0.00     0.143 C 
ATOM     35  O   UNK d   0     -21.321  21.169  21.248  0.00  0.00    -0.650 OA
BRANCH  34  36
ATOM     36  O   UNK d   0     -19.694  20.456  22.648  0.00  0.00    -0.776 OA
ATOM     37  H   UNK d   0     -19.649  20.774  23.626  0.00  0.00     0.167 HD
ENDBRANCH  34  36
ENDBRANCH  33  34
ENDBRANCH   8  33
BRANCH  31  38
ATOM     38  C   UNK d   0     -20.291  29.707  22.523  0.00  0.00     0.151 C 
BRANCH  38  39
ATOM     39  C   UNK d   0     -18.979  29.983  21.976  0.00  0.00     0.143 C 
ATOM     40  O   UNK d   0     -18.351  29.149  21.300  0.00  0.00    -0.650 OA
BRANCH  39  41
ATOM     41  O   UNK d   0     -18.387  31.224  22.207  0.00  0.00    -0.776 OA
ATOM     42  H   UNK d   0     -18.719  32.007  21.635  0.00  0.00     0.167 HD
ENDBRANCH  39  41
ENDBRANCH  38  39
ENDBRANCH  31  38
BRANCH  27  43
ATOM     43  C   UNK d   0     -21.861  31.591  20.654  0.00  0.00     0.052 C 
BRANCH  43  44
ATOM     44  C   UNK d   0     -20.917  32.123  19.626  0.00  0.00     0.115 C 
BRANCH  44  45
ATOM     45  C   UNK d   0     -21.463  33.434  19.187  0.00  0.00     0.139 C 
ATOM     46  O   UNK d   0     -22.607  33.763  19.587  0.00  0.00    -0.650 OA
BRANCH  45  47
ATOM     47  O   UNK d   0     -20.766  34.298  18.370  0.00  0.00    -0.776 OA
ATOM     48  H   UNK d   0     -20.975  35.308  18.313  0.00  0.00     0.167 HD
ENDBRANCH  45  47
ENDBRANCH  44  45
ENDBRANCH  43  44
ENDBRANCH  27  43
BRANCH  24  49
ATOM     49  C   UNK d   0     -25.181  31.212  16.239  0.00  0.00     0.052 C 
BRANCH  49  50
ATOM     50  C   UNK d   0     -24.331  32.229  15.521  0.00  0.00     0.115 C 
BRANCH  50  51
ATOM     51  C   UNK d   0     -23.895  33.390  16.285  0.00  0.00     0.139 C 
ATOM     52  O   UNK d   0     -22.827  33.999  16.039  0.00  0.00    -0.650 OA
BRANCH  51  53
ATOM     53  O   UNK d   0     -24.675  33.854  17.333  0.00  0.00    -0.776 OA
ATOM     54  H   UNK d   0     -24.751  33.285  18.157  0.00  0.00     0.167 HD
ENDBRANCH  51  53
ENDBRANCH  50  51
ENDBRANCH  49  50
ENDBRANCH  24  49
BRANCH  21  55
ATOM     55  C   UNK d   0     -24.774  29.158  13.968  0.00  0.00     0.151 C 
BRANCH  55  56
ATOM     56  C   UNK d   0     -25.896  28.241  13.716  0.00  0.00     0.143 C 
ATOM     57  O   UNK d   0     -25.907  27.432  12.767  0.00  0.00    -0.650 OA
BRANCH  56  58
ATOM     58  O   UNK d   0     -26.985  28.294  14.584  0.00  0.00    -0.776 OA
ATOM     59  H   UNK d   0     -26.931  27.647  15.391  0.00  0.00     0.167 HD
ENDBRANCH  56  58
ENDBRANCH  55  56
ENDBRANCH  21  55
BRANCH  18  60
ATOM     60  C   UNK d   0     -23.809  23.930  14.707  0.00  0.00     0.151 C 
BRANCH  60  61
ATOM     61  C   UNK d   0     -23.003  23.518  13.548  0.00  0.00     0.143 C 
ATOM     62  O   UNK d   0     -21.970  24.047  13.137  0.00  0.00    -0.650 OA
BRANCH  61  63
ATOM     63  O   UNK d   0     -23.490  22.389  12.846  0.00  0.00    -0.776 OA
ATOM     64  H   UNK d   0     -22.866  21.777  12.352  0.00  0.00     0.167 HD
ENDBRANCH  61  63
ENDBRANCH  60  61
ENDBRANCH  18  60
BRANCH  14  65
ATOM     65  C   UNK d   0     -22.167  22.072  16.457  0.00  0.00     0.052 C 
BRANCH  65  66
ATOM     66  C   UNK d   0     -23.513  21.513  16.758  0.00  0.00     0.115 C 
BRANCH  66  67
ATOM     67  C   UNK d   0     -24.058  20.481  15.923  0.00  0.00     0.139 C 
ATOM     68  O   UNK d   0     -23.418  20.152  14.857  0.00  0.00    -0.650 OA
BRANCH  67  69
ATOM     69  O   UNK d   0     -25.236  19.760  16.117  0.00  0.00    -0.776 OA
ATOM     70  H   UNK d   0     -25.847  19.669  15.292  0.00  0.00     0.167 HD
ENDBRANCH  67  69
ENDBRANCH  66  67
ENDBRANCH  65  66
ENDBRANCH  14  65
ENDBRANCH   6   7
ENDBRANCH   5   6
ENDBRANCH   2   5
TORSDOF 28
ENDMDL
MODEL 6
REMARK VINA RESULT:      -7.5      1.934      7.901
REMARK  28 active torsions:
REMARK  status: ('A' for Active; 'I' for Inactive)
REMARK    1  A    between atoms: C_2  and  O_3 
REMARK    2  A    between atoms: C_2  and  C_4 
REMARK    3  A    between atoms: C_4  and  C_5 
REMARK    4  A    between atoms: C_5  and  C_6 
REMARK    5  A    between atoms: C_7  and  C_8 
REMARK    6  A    between atoms: C_8  and  C_9 
REMARK    7  A    between atoms: C_9  and  O_11 
REMARK    8  A    between atoms: C_28  and  C_29 
REMARK    9  A    between atoms: C_29  and  C_30 
REMARK   10  A    between atoms: C_30  and  O_32 
REMARK   11  A    between atoms: C_33  and  C_34 
REMARK   12  A    between atoms: C_34  and  C_35 
REMARK   13  A    between atoms: C_35  and  C_36 
REMARK   14  A    between atoms: C_36  and  O_38 
REMARK   15  A    between atoms: C_39  and  C_40 
REMARK   16  A    between atoms: C_40  and  C_41 
REMARK   17  A    between atoms: C_41  and  C_42 
REMARK   18  A    between atoms: C_42  and  O_44 
REMARK   19  A    between atoms: C_45  and  C_46 
REMARK   20  A    between atoms: C_46  and  C_47 
REMARK   21  A    between atoms: C_47  and  O_49 
REMARK   22  A    between atoms: C_50  and  C_51 
REMARK   23  A    between atoms: C_51  and  C_52 
REMARK   24  A    between atoms: C_52  and  O_54 
REMARK   25  A    between atoms: C_55  and  C_56 
REMARK   26  A    between atoms: C_56  and  C_57 
REMARK   27  A    between atoms: C_57  and  C_58 
REMARK   28  A    between atoms: C_58  and  O_60 
ROOT
ATOM      1  O   UNK d   0     -19.386  20.539  23.791  0.00  0.00    -0.650 OA
ATOM      2  C   UNK d   0     -19.117  21.351  22.877  0.00  0.00     0.139 C 
ENDROOT
BRANCH   2   3
ATOM      3  O   UNK d   0     -17.926  21.236  22.203  0.00  0.00    -0.776 OA
ATOM      4  H   UNK d   0     -17.237  20.529  22.466  0.00  0.00     0.167 HD
ENDBRANCH   2   3
BRANCH   2   5
ATOM      5  C   UNK d   0     -20.084  22.431  22.528  0.00  0.00     0.115 C 
BRANCH   5   6
ATOM      6  C   UNK d   0     -19.404  23.485  21.697  0.00  0.00     0.052 C 
BRANCH   6   7
ATOM      7  C   UNK d   0     -20.173  23.822  20.442  0.00  0.00    -0.020 A 
ATOM      8  C   UNK d   0     -20.481  23.020  19.456  0.00  0.00    -0.011 A 
ATOM      9  C   UNK d   0     -21.217  23.792  18.468  0.00  0.00     0.067 A 
ATOM     10  C   UNK d   0     -21.829  23.533  17.232  0.00  0.00     0.062 C 
ATOM     11  N   UNK d   0     -21.305  25.056  18.932  0.00  0.00    -0.248 NA
ATOM     12  C   UNK d   0     -22.739  24.348  16.550  0.00  0.00     0.041 A 
ATOM     13  N   UNK d   0     -22.753  25.679  16.341  0.00  0.00    -0.355 N 
ATOM     14  C   UNK d   0     -23.896  23.766  16.002  0.00  0.00    -0.022 A 
ATOM     15  C   UNK d   0     -23.893  25.957  15.681  0.00  0.00     0.042 A 
ATOM     16  H   UNK d   0     -21.963  26.404  16.637  0.00  0.00     0.166 HD
ATOM     17  C   UNK d   0     -24.404  27.185  15.217  0.00  0.00     0.062 C 
ATOM     18  C   UNK d   0     -24.637  24.783  15.451  0.00  0.00    -0.013 A 
ATOM     19  C   UNK d   0     -24.461  28.394  15.862  0.00  0.00     0.067 A 
ATOM     20  N   UNK d   0     -23.777  28.504  17.004  0.00  0.00    -0.248 NA
ATOM     21  C   UNK d   0     -25.119  29.670  15.634  0.00  0.00    -0.011 A 
ATOM     22  C   UNK d   0     -23.940  29.758  17.539  0.00  0.00     0.066 A 
ATOM     23  C   UNK d   0     -23.250  30.021  18.713  0.00  0.00     0.062 C 
ATOM     24  C   UNK d   0     -24.813  30.462  16.621  0.00  0.00    -0.020 A 
ATOM     25  C   UNK d   0     -22.331  29.193  19.376  0.00  0.00     0.041 A 
ATOM     26  N   UNK d   0     -22.324  27.873  19.596  0.00  0.00    -0.355 N 
ATOM     27  C   UNK d   0     -21.167  29.777  19.922  0.00  0.00    -0.022 A 
ATOM     28  C   UNK d   0     -21.192  27.595  20.262  0.00  0.00     0.042 A 
ATOM     29  H   UNK d   0     -23.123  27.147  19.308  0.00  0.00     0.166 HD
ATOM     30  C   UNK d   0     -20.676  26.379  20.737  0.00  0.00     0.062 C 
ATOM     31  C   UNK d   0     -20.441  28.773  20.483  0.00  0.00    -0.013 A 
ATOM     32  C   UNK d   0     -20.697  25.140  20.116  0.00  0.00     0.066 A 
BRANCH   8  33
ATOM     33  C   UNK d   0     -20.148  21.588  19.342  0.00  0.00     0.151 C 
BRANCH  33  34
ATOM     34  C   UNK d   0     -18.842  21.355  18.699  0.00  0.00     0.143 C 
ATOM     35  O   UNK d   0     -17.883  20.914  19.348  0.00  0.00    -0.650 OA
BRANCH  34  36
ATOM     36  O   UNK d   0     -18.689  21.634  17.361  0.00  0.00    -0.776 OA
ATOM     37  H   UNK d   0     -19.498  21.861  16.766  0.00  0.00     0.167 HD
ENDBRANCH  34  36
ENDBRANCH  33  34
ENDBRANCH   8  33
BRANCH  31  38
ATOM     38  C   UNK d   0     -19.107  28.919  21.178  0.00  0.00     0.151 C 
BRANCH  38  39
ATOM     39  C   UNK d   0     -19.234  29.081  22.611  0.00  0.00     0.143 C 
ATOM     40  O   UNK d   0     -19.079  28.135  23.404  0.00  0.00    -0.650 OA
BRANCH  39  41
ATOM     41  O   UNK d   0     -19.542  30.336  23.135  0.00  0.00    -0.776 OA
ATOM     42  H   UNK d   0     -20.519  30.638  23.068  0.00  0.00     0.167 HD
ENDBRANCH  39  41
ENDBRANCH  38  39
ENDBRANCH  31  38
BRANCH  27  43
ATOM     43  C   UNK d   0     -20.733  31.222  19.930  0.00  0.00     0.052 C 
BRANCH  43  44
ATOM     44  C   UNK d   0     -21.721  32.132  20.584  0.00  0.00     0.115 C 
BRANCH  44  45
ATOM     45  C   UNK d   0     -21.667  33.420  19.845  0.00  0.00     0.139 C 
ATOM     46  O   UNK d   0     -22.423  34.350  20.220  0.00  0.00    -0.650 OA
BRANCH  45  47
ATOM     47  O   UNK d   0     -20.824  33.633  18.776  0.00  0.00    -0.776 OA
ATOM     48  H   UNK d   0     -20.293  34.509  18.647  0.00  0.00     0.167 HD
ENDBRANCH  45  47
ENDBRANCH  44  45
ENDBRANCH  43  44
ENDBRANCH  27  43
BRANCH  24  49
ATOM     49  C   UNK d   0     -25.235  31.865  16.771  0.00  0.00     0.052 C 
BRANCH  49  50
ATOM     50  C   UNK d   0     -24.266  32.782  16.069  0.00  0.00     0.115 C 
BRANCH  50  51
ATOM     51  C   UNK d   0     -23.797  33.946  16.809  0.00  0.00     0.139 C 
ATOM     52  O   UNK d   0     -24.437  34.442  17.766  0.00  0.00    -0.650 OA
BRANCH  51  53
ATOM     53  O   UNK d   0     -22.598  34.546  16.455  0.00  0.00    -0.776 OA
ATOM     54  H   UNK d   0     -21.807  33.955  16.271  0.00  0.00     0.167 HD
ENDBRANCH  51  53
ENDBRANCH  50  51
ENDBRANCH  49  50
ENDBRANCH  24  49
BRANCH  21  55
ATOM     55  C   UNK d   0     -25.980  29.966  14.451  0.00  0.00     0.151 C 
BRANCH  55  56
ATOM     56  C   UNK d   0     -27.300  29.326  14.556  0.00  0.00     0.143 C 
ATOM     57  O   UNK d   0     -27.798  28.651  13.635  0.00  0.00    -0.650 OA
BRANCH  56  58
ATOM     58  O   UNK d   0     -28.009  29.493  15.745  0.00  0.00    -0.776 OA
ATOM     59  H   UNK d   0     -27.475  29.277  16.606  0.00  0.00     0.167 HD
ENDBRANCH  56  58
ENDBRANCH  55  56
ENDBRANCH  21  55
BRANCH  18  60
ATOM     60  C   UNK d   0     -25.966  24.607  14.760  0.00  0.00     0.151 C 
BRANCH  60  61
ATOM     61  C   UNK d   0     -25.775  25.099  13.387  0.00  0.00     0.143 C 
ATOM     62  O   UNK d   0     -26.530  25.837  12.751  0.00  0.00    -0.650 OA
BRANCH  61  63
ATOM     63  O   UNK d   0     -24.588  24.664  12.750  0.00  0.00    -0.776 OA
ATOM     64  H   UNK d   0     -24.603  23.916  12.081  0.00  0.00     0.167 HD
ENDBRANCH  61  63
ENDBRANCH  60  61
ENDBRANCH  18  60
BRANCH  14  65
ATOM     65  C   UNK d   0     -24.304  22.326  15.874  0.00  0.00     0.052 C 
BRANCH  65  66
ATOM     66  C   UNK d   0     -23.518  21.589  14.848  0.00  0.00     0.115 C 
BRANCH  66  67
ATOM     67  C   UNK d   0     -23.463  22.084  13.502  0.00  0.00     0.139 C 
ATOM     68  O   UNK d   0     -24.470  21.877  12.729  0.00  0.00    -0.650 OA
BRANCH  67  69
ATOM     69  O   UNK d   0     -22.424  22.788  12.893  0.00  0.00    -0.776 OA
ATOM     70  H   UNK d   0     -22.708  23.557  12.270  0.00  0.00     0.167 HD
ENDBRANCH  67  69
ENDBRANCH  66  67
ENDBRANCH  65  66
ENDBRANCH  14  65
ENDBRANCH   6   7
ENDBRANCH   5   6
ENDBRANCH   2   5
TORSDOF 28
ENDMDL
MODEL 7
REMARK VINA RESULT:      -7.3      6.077     11.574
REMARK  28 active torsions:
REMARK  status: ('A' for Active; 'I' for Inactive)
REMARK    1  A    between atoms: C_2  and  O_3 
REMARK    2  A    between atoms: C_2  and  C_4 
REMARK    3  A    between atoms: C_4  and  C_5 
REMARK    4  A    between atoms: C_5  and  C_6 
REMARK    5  A    between atoms: C_7  and  C_8 
REMARK    6  A    between atoms: C_8  and  C_9 
REMARK    7  A    between atoms: C_9  and  O_11 
REMARK    8  A    between atoms: C_28  and  C_29 
REMARK    9  A    between atoms: C_29  and  C_30 
REMARK   10  A    between atoms: C_30  and  O_32 
REMARK   11  A    between atoms: C_33  and  C_34 
REMARK   12  A    between atoms: C_34  and  C_35 
REMARK   13  A    between atoms: C_35  and  C_36 
REMARK   14  A    between atoms: C_36  and  O_38 
REMARK   15  A    between atoms: C_39  and  C_40 
REMARK   16  A    between atoms: C_40  and  C_41 
REMARK   17  A    between atoms: C_41  and  C_42 
REMARK   18  A    between atoms: C_42  and  O_44 
REMARK   19  A    between atoms: C_45  and  C_46 
REMARK   20  A    between atoms: C_46  and  C_47 
REMARK   21  A    between atoms: C_47  and  O_49 
REMARK   22  A    between atoms: C_50  and  C_51 
REMARK   23  A    between atoms: C_51  and  C_52 
REMARK   24  A    between atoms: C_52  and  O_54 
REMARK   25  A    between atoms: C_55  and  C_56 
REMARK   26  A    between atoms: C_56  and  C_57 
REMARK   27  A    between atoms: C_57  and  C_58 
REMARK   28  A    between atoms: C_58  and  O_60 
ROOT
ATOM      1  O   UNK d   0     -19.007  18.975  24.121  0.00  0.00    -0.650 OA
ATOM      2  C   UNK d   0     -18.457  18.154  23.353  0.00  0.00     0.139 C 
ENDROOT
BRANCH   2   3
ATOM      3  O   UNK d   0     -17.261  18.481  22.762  0.00  0.00    -0.776 OA
ATOM      4  H   UNK d   0     -17.211  19.195  22.032  0.00  0.00     0.167 HD
ENDBRANCH   2   3
BRANCH   2   5
ATOM      5  C   UNK d   0     -19.098  16.836  23.085  0.00  0.00     0.115 C 
BRANCH   5   6
ATOM      6  C   UNK d   0     -20.591  16.945  23.240  0.00  0.00     0.052 C 
BRANCH   6   7
ATOM      7  C   UNK d   0     -21.319  16.879  21.918  0.00  0.00    -0.020 A 
ATOM      8  C   UNK d   0     -21.883  15.834  21.369  0.00  0.00    -0.011 A 
ATOM      9  C   UNK d   0     -22.449  16.251  20.097  0.00  0.00     0.067 A 
ATOM     10  C   UNK d   0     -23.180  15.641  19.066  0.00  0.00     0.062 C 
ATOM     11  N   UNK d   0     -22.178  17.564  19.949  0.00  0.00    -0.248 NA
ATOM     12  C   UNK d   0     -23.885  16.275  18.037  0.00  0.00     0.041 A 
ATOM     13  N   UNK d   0     -23.564  17.329  17.262  0.00  0.00    -0.355 N 
ATOM     14  C   UNK d   0     -25.184  15.833  17.729  0.00  0.00    -0.022 A 
ATOM     15  C   UNK d   0     -24.630  17.572  16.476  0.00  0.00     0.042 A 
ATOM     16  H   UNK d   0     -22.597  17.878  17.257  0.00  0.00     0.166 HD
ATOM     17  C   UNK d   0     -24.829  18.554  15.485  0.00  0.00     0.062 C 
ATOM     18  C   UNK d   0     -25.666  16.655  16.740  0.00  0.00    -0.013 A 
ATOM     19  C   UNK d   0     -24.531  19.892  15.525  0.00  0.00     0.067 A 
ATOM     20  N   UNK d   0     -23.776  20.313  16.543  0.00  0.00    -0.248 NA
ATOM     21  C   UNK d   0     -24.846  21.057  14.715  0.00  0.00    -0.011 A 
ATOM     22  C   UNK d   0     -23.575  21.669  16.458  0.00  0.00     0.066 A 
ATOM     23  C   UNK d   0     -22.771  22.235  17.437  0.00  0.00     0.062 C 
ATOM     24  C   UNK d   0     -24.287  22.095  15.269  0.00  0.00    -0.020 A 
ATOM     25  C   UNK d   0     -22.062  21.579  18.454  0.00  0.00     0.041 A 
ATOM     26  N   UNK d   0     -22.386  20.541  19.235  0.00  0.00    -0.355 N 
ATOM     27  C   UNK d   0     -20.756  22.020  18.760  0.00  0.00    -0.022 A 
ATOM     28  C   UNK d   0     -21.329  20.302  20.026  0.00  0.00     0.042 A 
ATOM     29  H   UNK d   0     -23.363  19.997  19.246  0.00  0.00     0.166 HD
ATOM     30  C   UNK d   0     -21.120  19.335  21.022  0.00  0.00     0.062 C 
ATOM     31  C   UNK d   0     -20.284  21.218  19.753  0.00  0.00    -0.013 A 
ATOM     32  C   UNK d   0     -21.500  18.002  21.011  0.00  0.00     0.066 A 
BRANCH   8  33
ATOM     33  C   UNK d   0     -21.942  14.467  21.921  0.00  0.00     0.151 C 
BRANCH  33  34
ATOM     34  C   UNK d   0     -23.319  14.028  22.212  0.00  0.00     0.143 C 
ATOM     35  O   UNK d   0     -23.937  14.477  23.188  0.00  0.00    -0.650 OA
BRANCH  34  36
ATOM     36  O   UNK d   0     -23.922  13.106  21.388  0.00  0.00    -0.776 OA
ATOM     37  H   UNK d   0     -24.347  12.249  21.767  0.00  0.00     0.167 HD
ENDBRANCH  34  36
ENDBRANCH  33  34
ENDBRANCH   8  33
BRANCH  31  38
ATOM     38  C   UNK d   0     -18.920  21.304  20.396  0.00  0.00     0.151 C 
BRANCH  38  39
ATOM     39  C   UNK d   0     -18.940  22.004  21.663  0.00  0.00     0.143 C 
ATOM     40  O   UNK d   0     -19.568  23.065  21.827  0.00  0.00    -0.650 OA
BRANCH  39  41
ATOM     41  O   UNK d   0     -18.234  21.482  22.746  0.00  0.00    -0.776 OA
ATOM     42  H   UNK d   0     -18.784  21.012  23.472  0.00  0.00     0.167 HD
ENDBRANCH  39  41
ENDBRANCH  38  39
ENDBRANCH  31  38
BRANCH  27  43
ATOM     43  C   UNK d   0     -19.961  23.151  18.157  0.00  0.00     0.052 C 
BRANCH  43  44
ATOM     44  C   UNK d   0     -20.396  24.499  18.636  0.00  0.00     0.115 C 
BRANCH  44  45
ATOM     45  C   UNK d   0     -20.101  25.455  17.536  0.00  0.00     0.139 C 
ATOM     46  O   UNK d   0     -19.323  25.084  16.623  0.00  0.00    -0.650 OA
BRANCH  45  47
ATOM     47  O   UNK d   0     -20.648  26.718  17.478  0.00  0.00    -0.776 OA
ATOM     48  H   UNK d   0     -21.292  27.084  18.198  0.00  0.00     0.167 HD
ENDBRANCH  45  47
ENDBRANCH  44  45
ENDBRANCH  43  44
ENDBRANCH  27  43
BRANCH  24  49
ATOM     49  C   UNK d   0     -24.319  23.475  14.757  0.00  0.00     0.052 C 
BRANCH  49  50
ATOM     50  C   UNK d   0     -23.141  23.726  13.851  0.00  0.00     0.115 C 
BRANCH  50  51
ATOM     51  C   UNK d   0     -21.959  24.332  14.449  0.00  0.00     0.139 C 
ATOM     52  O   UNK d   0     -21.896  25.550  14.737  0.00  0.00    -0.650 OA
BRANCH  51  53
ATOM     53  O   UNK d   0     -20.847  23.549  14.716  0.00  0.00    -0.776 OA
ATOM     54  H   UNK d   0     -20.025  23.683  14.153  0.00  0.00     0.167 HD
ENDBRANCH  51  53
ENDBRANCH  50  51
ENDBRANCH  49  50
ENDBRANCH  24  49
BRANCH  21  55
ATOM     55  C   UNK d   0     -25.669  21.012  13.471  0.00  0.00     0.151 C 
BRANCH  55  56
ATOM     56  C   UNK d   0     -27.022  20.492  13.723  0.00  0.00     0.143 C 
ATOM     57  O   UNK d   0     -27.863  21.105  14.410  0.00  0.00    -0.650 OA
BRANCH  56  58
ATOM     58  O   UNK d   0     -27.360  19.262  13.162  0.00  0.00    -0.776 OA
ATOM     59  H   UNK d   0     -27.183  18.442  13.770  0.00  0.00     0.167 HD
ENDBRANCH  56  58
ENDBRANCH  55  56
ENDBRANCH  21  55
BRANCH  18  60
ATOM     60  C   UNK d   0     -27.033  16.543  16.113  0.00  0.00     0.151 C 
BRANCH  60  61
ATOM     61  C   UNK d   0     -26.810  16.077  14.736  0.00  0.00     0.143 C 
ATOM     62  O   UNK d   0     -25.880  15.378  14.331  0.00  0.00    -0.650 OA
BRANCH  61  63
ATOM     63  O   UNK d   0     -27.783  16.490  13.794  0.00  0.00    -0.776 OA
ATOM     64  H   UNK d   0     -28.712  16.739  14.085  0.00  0.00     0.167 HD
ENDBRANCH  61  63
ENDBRANCH  60  61
ENDBRANCH  18  60
BRANCH  14  65
ATOM     65  C   UNK d   0     -25.960  14.646  18.224  0.00  0.00     0.052 C 
BRANCH  65  66
ATOM     66  C   UNK d   0     -26.956  14.997  19.271  0.00  0.00     0.115 C 
BRANCH  66  67
ATOM     67  C   UNK d   0     -26.574  14.971  20.654  0.00  0.00     0.139 C 
ATOM     68  O   UNK d   0     -26.774  13.892  21.326  0.00  0.00    -0.650 OA
BRANCH  67  69
ATOM     69  O   UNK d   0     -25.993  15.996  21.399  0.00  0.00    -0.776 OA
ATOM     70  H   UNK d   0     -26.643  16.701  21.775  0.00  0.00     0.167 HD
ENDBRANCH  67  69
ENDBRANCH  66  67
ENDBRANCH  65  66
ENDBRANCH  14  65
ENDBRANCH   6   7
ENDBRANCH   5   6
ENDBRANCH   2   5
TORSDOF 28
ENDMDL
MODEL 8
REMARK VINA RESULT:      -7.2     22.182     25.518
REMARK  28 active torsions:
REMARK  status: ('A' for Active; 'I' for Inactive)
REMARK    1  A    between atoms: C_2  and  O_3 
REMARK    2  A    between atoms: C_2  and  C_4 
REMARK    3  A    between atoms: C_4  and  C_5 
REMARK    4  A    between atoms: C_5  and  C_6 
REMARK    5  A    between atoms: C_7  and  C_8 
REMARK    6  A    between atoms: C_8  and  C_9 
REMARK    7  A    between atoms: C_9  and  O_11 
REMARK    8  A    between atoms: C_28  and  C_29 
REMARK    9  A    between atoms: C_29  and  C_30 
REMARK   10  A    between atoms: C_30  and  O_32 
REMARK   11  A    between atoms: C_33  and  C_34 
REMARK   12  A    between atoms: C_34  and  C_35 
REMARK   13  A    between atoms: C_35  and  C_36 
REMARK   14  A    between atoms: C_36  and  O_38 
REMARK   15  A    between atoms: C_39  and  C_40 
REMARK   16  A    between atoms: C_40  and  C_41 
REMARK   17  A    between atoms: C_41  and  C_42 
REMARK   18  A    between atoms: C_42  and  O_44 
REMARK   19  A    between atoms: C_45  and  C_46 
REMARK   20  A    between atoms: C_46  and  C_47 
REMARK   21  A    between atoms: C_47  and  O_49 
REMARK   22  A    between atoms: C_50  and  C_51 
REMARK   23  A    between atoms: C_51  and  C_52 
REMARK   24  A    between atoms: C_52  and  O_54 
REMARK   25  A    between atoms: C_55  and  C_56 
REMARK   26  A    between atoms: C_56  and  C_57 
REMARK   27  A    between atoms: C_57  and  C_58 
REMARK   28  A    between atoms: C_58  and  O_60 
ROOT
ATOM      1  O   UNK d   0     -28.409   5.440   8.406  0.00  0.00    -0.650 OA
ATOM      2  C   UNK d   0     -28.735   4.427   7.748  0.00  0.00     0.139 C 
ENDROOT
BRANCH   2   3
ATOM      3  O   UNK d   0     -27.948   3.302   7.808  0.00  0.00    -0.776 OA
ATOM      4  H   UNK d   0     -27.719   2.773   6.965  0.00  0.00     0.167 HD
ENDBRANCH   2   3
BRANCH   2   5
ATOM      5  C   UNK d   0     -29.966   4.445   6.907  0.00  0.00     0.115 C 
BRANCH   5   6
ATOM      6  C   UNK d   0     -29.609   4.724   5.473  0.00  0.00     0.052 C 
BRANCH   6   7
ATOM      7  C   UNK d   0     -29.617   6.199   5.149  0.00  0.00    -0.020 A 
ATOM      8  C   UNK d   0     -28.588   7.002   5.055  0.00  0.00    -0.011 A 
ATOM      9  C   UNK d   0     -29.086   8.329   4.733  0.00  0.00     0.067 A 
ATOM     10  C   UNK d   0     -28.521   9.590   4.485  0.00  0.00     0.062 C 
ATOM     11  N   UNK d   0     -30.430   8.244   4.657  0.00  0.00    -0.248 NA
ATOM     12  C   UNK d   0     -29.149  10.702   3.914  0.00  0.00     0.041 A 
ATOM     13  N   UNK d   0     -30.373  11.227   4.113  0.00  0.00    -0.355 N 
ATOM     14  C   UNK d   0     -28.477  11.422   2.910  0.00  0.00    -0.022 A 
ATOM     15  C   UNK d   0     -30.497  12.258   3.255  0.00  0.00     0.042 A 
ATOM     16  H   UNK d   0     -31.126  10.889   4.858  0.00  0.00     0.166 HD
ATOM     17  C   UNK d   0     -31.570  13.148   3.046  0.00  0.00     0.062 C 
ATOM     18  C   UNK d   0     -29.329  12.411   2.484  0.00  0.00    -0.013 A 
ATOM     19  C   UNK d   0     -32.909  12.874   2.939  0.00  0.00     0.067 A 
ATOM     20  N   UNK d   0     -33.302  11.640   3.266  0.00  0.00    -0.248 NA
ATOM     21  C   UNK d   0     -34.096  13.605   2.526  0.00  0.00    -0.011 A 
ATOM     22  C   UNK d   0     -34.659  11.511   3.096  0.00  0.00     0.066 A 
ATOM     23  C   UNK d   0     -35.209  10.284   3.437  0.00  0.00     0.062 C 
ATOM     24  C   UNK d   0     -35.115  12.801   2.616  0.00  0.00    -0.020 A 
ATOM     25  C   UNK d   0     -34.563   9.184   4.021  0.00  0.00     0.041 A 
ATOM     26  N   UNK d   0     -33.352   8.652   3.813  0.00  0.00    -0.355 N 
ATOM     27  C   UNK d   0     -35.237   8.464   5.032  0.00  0.00    -0.022 A 
ATOM     28  C   UNK d   0     -33.229   7.619   4.661  0.00  0.00     0.042 A 
ATOM     29  H   UNK d   0     -32.601   8.987   3.057  0.00  0.00     0.166 HD
ATOM     30  C   UNK d   0     -32.172   6.720   4.874  0.00  0.00     0.062 C 
ATOM     31  C   UNK d   0     -34.400   7.473   5.443  0.00  0.00    -0.013 A 
ATOM     32  C   UNK d   0     -30.813   6.989   4.896  0.00  0.00     0.066 A 
BRANCH   8  33
ATOM     33  C   UNK d   0     -27.169   6.646   5.242  0.00  0.00     0.151 C 
BRANCH  33  34
ATOM     34  C   UNK d   0     -26.447   6.488   3.967  0.00  0.00     0.143 C 
ATOM     35  O   UNK d   0     -25.332   7.003   3.798  0.00  0.00    -0.650 OA
BRANCH  34  36
ATOM     36  O   UNK d   0     -27.022   5.759   2.952  0.00  0.00    -0.776 OA
ATOM     37  H   UNK d   0     -27.944   6.008   2.571  0.00  0.00     0.167 HD
ENDBRANCH  34  36
ENDBRANCH  33  34
ENDBRANCH   8  33
BRANCH  31  38
ATOM     38  C   UNK d   0     -34.687   6.455   6.522  0.00  0.00     0.151 C 
BRANCH  38  39
ATOM     39  C   UNK d   0     -34.684   5.095   6.026  0.00  0.00     0.143 C 
ATOM     40  O   UNK d   0     -34.004   4.196   6.552  0.00  0.00    -0.650 OA
BRANCH  39  41
ATOM     41  O   UNK d   0     -35.466   4.766   4.919  0.00  0.00    -0.776 OA
ATOM     42  H   UNK d   0     -35.365   3.817   4.548  0.00  0.00     0.167 HD
ENDBRANCH  39  41
ENDBRANCH  38  39
ENDBRANCH  31  38
BRANCH  27  43
ATOM     43  C   UNK d   0     -36.615   8.679   5.605  0.00  0.00     0.052 C 
BRANCH  43  44
ATOM     44  C   UNK d   0     -36.814  10.049   6.169  0.00  0.00     0.115 C 
BRANCH  44  45
ATOM     45  C   UNK d   0     -38.280  10.289   6.193  0.00  0.00     0.139 C 
ATOM     46  O   UNK d   0     -39.043   9.292   6.216  0.00  0.00    -0.650 OA
BRANCH  45  47
ATOM     47  O   UNK d   0     -38.830  11.553   6.198  0.00  0.00    -0.776 OA
ATOM     48  H   UNK d   0     -38.270  12.408   6.053  0.00  0.00     0.167 HD
ENDBRANCH  45  47
ENDBRANCH  44  45
ENDBRANCH  43  44
ENDBRANCH  27  43
BRANCH  24  49
ATOM     49  C   UNK d   0     -36.519  13.143   2.331  0.00  0.00     0.052 C 
BRANCH  49  50
ATOM     50  C   UNK d   0     -37.383  12.862   3.534  0.00  0.00     0.115 C 
BRANCH  50  51
ATOM     51  C   UNK d   0     -38.792  13.217   3.438  0.00  0.00     0.139 C 
ATOM     52  O   UNK d   0     -39.182  14.397   3.269  0.00  0.00    -0.650 OA
BRANCH  51  53
ATOM     53  O   UNK d   0     -39.758  12.228   3.538  0.00  0.00    -0.776 OA
ATOM     54  H   UNK d   0     -39.966  11.857   4.449  0.00  0.00     0.167 HD
ENDBRANCH  51  53
ENDBRANCH  50  51
ENDBRANCH  49  50
ENDBRANCH  24  49
BRANCH  21  55
ATOM     55  C   UNK d   0     -34.087  15.032   2.089  0.00  0.00     0.151 C 
BRANCH  55  56
ATOM     56  C   UNK d   0     -33.714  15.173   0.673  0.00  0.00     0.143 C 
ATOM     57  O   UNK d   0     -34.337  14.611  -0.248  0.00  0.00    -0.650 OA
BRANCH  56  58
ATOM     58  O   UNK d   0     -32.614  15.974   0.368  0.00  0.00    -0.776 OA
ATOM     59  H   UNK d   0     -32.841  16.861  -0.116  0.00  0.00     0.167 HD
ENDBRANCH  56  58
ENDBRANCH  55  56
ENDBRANCH  21  55
BRANCH  18  60
ATOM     60  C   UNK d   0     -29.014  13.417   1.405  0.00  0.00     0.151 C 
BRANCH  60  61
ATOM     61  C   UNK d   0     -29.375  14.730   1.960  0.00  0.00     0.143 C 
ATOM     62  O   UNK d   0     -29.884  15.676   1.358  0.00  0.00    -0.650 OA
BRANCH  61  63
ATOM     63  O   UNK d   0     -29.098  14.899   3.338  0.00  0.00    -0.776 OA
ATOM     64  H   UNK d   0     -28.886  14.111   3.924  0.00  0.00     0.167 HD
ENDBRANCH  61  63
ENDBRANCH  60  61
ENDBRANCH  18  60
BRANCH  14  65
ATOM     65  C   UNK d   0     -27.069  11.310   2.398  0.00  0.00     0.052 C 
BRANCH  65  66
ATOM     66  C   UNK d   0     -26.961  10.472   1.174  0.00  0.00     0.115 C 
BRANCH  66  67
ATOM     67  C   UNK d   0     -26.771   9.054   1.296  0.00  0.00     0.139 C 
ATOM     68  O   UNK d   0     -27.807   8.306   1.436  0.00  0.00    -0.650 OA
BRANCH  67  69
ATOM     69  O   UNK d   0     -25.567   8.350   1.284  0.00  0.00    -0.776 OA
ATOM     70  H   UNK d   0     -25.357   7.807   2.134  0.00  0.00     0.167 HD
ENDBRANCH  67  69
ENDBRANCH  66  67
ENDBRANCH  65  66
ENDBRANCH  14  65
ENDBRANCH   6   7
ENDBRANCH   5   6
ENDBRANCH   2   5
TORSDOF 28
ENDMDL
MODEL 9
REMARK VINA RESULT:      -7.1      4.988     11.300
REMARK  28 active torsions:
REMARK  status: ('A' for Active; 'I' for Inactive)
REMARK    1  A    between atoms: C_2  and  O_3 
REMARK    2  A    between atoms: C_2  and  C_4 
REMARK    3  A    between atoms: C_4  and  C_5 
REMARK    4  A    between atoms: C_5  and  C_6 
REMARK    5  A    between atoms: C_7  and  C_8 
REMARK    6  A    between atoms: C_8  and  C_9 
REMARK    7  A    between atoms: C_9  and  O_11 
REMARK    8  A    between atoms: C_28  and  C_29 
REMARK    9  A    between atoms: C_29  and  C_30 
REMARK   10  A    between atoms: C_30  and  O_32 
REMARK   11  A    between atoms: C_33  and  C_34 
REMARK   12  A    between atoms: C_34  and  C_35 
REMARK   13  A    between atoms: C_35  and  C_36 
REMARK   14  A    between atoms: C_36  and  O_38 
REMARK   15  A    between atoms: C_39  and  C_40 
REMARK   16  A    between atoms: C_40  and  C_41 
REMARK   17  A    between atoms: C_41  and  C_42 
REMARK   18  A    between atoms: C_42  and  O_44 
REMARK   19  A    between atoms: C_45  and  C_46 
REMARK   20  A    between atoms: C_46  and  C_47 
REMARK   21  A    between atoms: C_47  and  O_49 
REMARK   22  A    between atoms: C_50  and  C_51 
REMARK   23  A    between atoms: C_51  and  C_52 
REMARK   24  A    between atoms: C_52  and  O_54 
REMARK   25  A    between atoms: C_55  and  C_56 
REMARK   26  A    between atoms: C_56  and  C_57 
REMARK   27  A    between atoms: C_57  and  C_58 
REMARK   28  A    between atoms: C_58  and  O_60 
ROOT
ATOM      1  O   UNK d   0     -27.905  16.166  15.493  0.00  0.00    -0.650 OA
ATOM      2  C   UNK d   0     -26.791  15.632  15.295  0.00  0.00     0.139 C 
ENDROOT
BRANCH   2   3
ATOM      3  O   UNK d   0     -26.222  15.704  14.046  0.00  0.00    -0.776 OA
ATOM      4  H   UNK d   0     -26.251  14.908  13.406  0.00  0.00     0.167 HD
ENDBRANCH   2   3
BRANCH   2   5
ATOM      5  C   UNK d   0     -26.092  14.925  16.405  0.00  0.00     0.115 C 
BRANCH   5   6
ATOM      6  C   UNK d   0     -24.604  14.958  16.185  0.00  0.00     0.052 C 
BRANCH   6   7
ATOM      7  C   UNK d   0     -23.931  16.088  16.927  0.00  0.00    -0.020 A 
ATOM      8  C   UNK d   0     -23.318  16.032  18.081  0.00  0.00    -0.011 A 
ATOM      9  C   UNK d   0     -22.839  17.368  18.396  0.00  0.00     0.067 A 
ATOM     10  C   UNK d   0     -22.112  17.963  19.439  0.00  0.00     0.062 C 
ATOM     11  N   UNK d   0     -23.210  18.176  17.381  0.00  0.00    -0.248 NA
ATOM     12  C   UNK d   0     -21.500  19.221  19.434  0.00  0.00     0.041 A 
ATOM     13  N   UNK d   0     -21.928  20.414  18.978  0.00  0.00    -0.355 N 
ATOM     14  C   UNK d   0     -20.187  19.341  19.925  0.00  0.00    -0.022 A 
ATOM     15  C   UNK d   0     -20.918  21.285  19.159  0.00  0.00     0.042 A 
ATOM     16  H   UNK d   0     -22.932  20.639  18.554  0.00  0.00     0.166 HD
ATOM     17  C   UNK d   0     -20.833  22.659  18.860  0.00  0.00     0.062 C 
ATOM     18  C   UNK d   0     -19.809  20.649  19.750  0.00  0.00    -0.013 A 
ATOM     19  C   UNK d   0     -21.223  23.320  17.723  0.00  0.00     0.067 A 
ATOM     20  N   UNK d   0     -21.962  22.634  16.848  0.00  0.00    -0.248 NA
ATOM     21  C   UNK d   0     -21.028  24.650  17.168  0.00  0.00    -0.011 A 
ATOM     22  C   UNK d   0     -22.262  23.417  15.760  0.00  0.00     0.066 A 
ATOM     23  C   UNK d   0     -23.060  22.837  14.785  0.00  0.00     0.062 C 
ATOM     24  C   UNK d   0     -21.634  24.698  16.017  0.00  0.00    -0.020 A 
ATOM     25  C   UNK d   0     -23.676  21.576  14.815  0.00  0.00     0.041 A 
ATOM     26  N   UNK d   0     -23.245  20.388  15.254  0.00  0.00    -0.355 N 
ATOM     27  C   UNK d   0     -24.996  21.458  14.326  0.00  0.00    -0.022 A 
ATOM     28  C   UNK d   0     -24.248  19.515  15.067  0.00  0.00     0.042 A 
ATOM     29  H   UNK d   0     -22.233  20.161  15.670  0.00  0.00     0.166 HD
ATOM     30  C   UNK d   0     -24.343  18.144  15.351  0.00  0.00     0.062 C 
ATOM     31  C   UNK d   0     -25.365  20.157  14.483  0.00  0.00    -0.013 A 
ATOM     32  C   UNK d   0     -23.870  17.467  16.464  0.00  0.00     0.066 A 
BRANCH   8  33
ATOM     33  C   UNK d   0     -23.138  14.840  18.931  0.00  0.00     0.151 C 
BRANCH  33  34
ATOM     34  C   UNK d   0     -24.328  14.537  19.747  0.00  0.00     0.143 C 
ATOM     35  O   UNK d   0     -24.731  15.335  20.605  0.00  0.00    -0.650 OA
BRANCH  34  36
ATOM     36  O   UNK d   0     -24.996  13.350  19.553  0.00  0.00    -0.776 OA
ATOM     37  H   UNK d   0     -24.550  12.446  19.760  0.00  0.00     0.167 HD
ENDBRANCH  34  36
ENDBRANCH  33  34
ENDBRANCH   8  33
BRANCH  31  38
ATOM     38  C   UNK d   0     -26.703  19.560  14.113  0.00  0.00     0.151 C 
BRANCH  38  39
ATOM     39  C   UNK d   0     -27.700  19.731  15.149  0.00  0.00     0.143 C 
ATOM     40  O   UNK d   0     -28.625  20.556  15.053  0.00  0.00    -0.650 OA
BRANCH  39  41
ATOM     41  O   UNK d   0     -27.633  18.948  16.301  0.00  0.00    -0.776 OA
ATOM     42  H   UNK d   0     -28.251  18.132  16.341  0.00  0.00     0.167 HD
ENDBRANCH  39  41
ENDBRANCH  38  39
ENDBRANCH  31  38
BRANCH  27  43
ATOM     43  C   UNK d   0     -25.894  22.511  13.728  0.00  0.00     0.052 C 
BRANCH  43  44
ATOM     44  C   UNK d   0     -26.332  23.544  14.716  0.00  0.00     0.115 C 
BRANCH  44  45
ATOM     45  C   UNK d   0     -26.234  24.857  14.027  0.00  0.00     0.139 C 
ATOM     46  O   UNK d   0     -26.645  25.877  14.636  0.00  0.00    -0.650 OA
BRANCH  45  47
ATOM     47  O   UNK d   0     -25.710  25.000  12.761  0.00  0.00    -0.776 OA
ATOM     48  H   UNK d   0     -24.699  25.109  12.582  0.00  0.00     0.167 HD
ENDBRANCH  45  47
ENDBRANCH  44  45
ENDBRANCH  43  44
ENDBRANCH  27  43
BRANCH  24  49
ATOM     49  C   UNK d   0     -21.723  25.871  15.131  0.00  0.00     0.052 C 
BRANCH  49  50
ATOM     50  C   UNK d   0     -23.081  26.514  15.247  0.00  0.00     0.115 C 
BRANCH  50  51
ATOM     51  C   UNK d   0     -23.130  27.970  15.244  0.00  0.00     0.139 C 
ATOM     52  O   UNK d   0     -23.574  28.634  16.210  0.00  0.00    -0.650 OA
BRANCH  51  53
ATOM     53  O   UNK d   0     -22.674  28.670  14.137  0.00  0.00    -0.776 OA
ATOM     54  H   UNK d   0     -22.624  29.671  14.195  0.00  0.00     0.167 HD
ENDBRANCH  51  53
ENDBRANCH  50  51
ENDBRANCH  49  50
ENDBRANCH  24  49
BRANCH  21  55
ATOM     55  C   UNK d   0     -20.259  25.733  17.848  0.00  0.00     0.151 C 
BRANCH  55  56
ATOM     56  C   UNK d   0     -21.098  26.506  18.776  0.00  0.00     0.143 C 
ATOM     57  O   UNK d   0     -21.349  26.125  19.936  0.00  0.00    -0.650 OA
BRANCH  56  58
ATOM     58  O   UNK d   0     -21.626  27.714  18.322  0.00  0.00    -0.776 OA
ATOM     59  H   UNK d   0     -22.655  27.722  18.199  0.00  0.00     0.167 HD
ENDBRANCH  56  58
ENDBRANCH  55  56
ENDBRANCH  21  55
BRANCH  18  60
ATOM     60  C   UNK d   0     -18.466  21.219  20.132  0.00  0.00     0.151 C 
BRANCH  60  61
ATOM     61  C   UNK d   0     -18.611  21.704  21.513  0.00  0.00     0.143 C 
ATOM     62  O   UNK d   0     -19.461  22.486  21.939  0.00  0.00    -0.650 OA
BRANCH  61  63
ATOM     63  O   UNK d   0     -17.657  21.203  22.431  0.00  0.00    -0.776 OA
ATOM     64  H   UNK d   0     -17.128  21.823  23.019  0.00  0.00     0.167 HD
ENDBRANCH  61  63
ENDBRANCH  60  61
ENDBRANCH  18  60
BRANCH  14  65
ATOM     65  C   UNK d   0     -19.308  18.346  20.629  0.00  0.00     0.052 C 
BRANCH  65  66
ATOM     66  C   UNK d   0     -19.607  18.232  22.081  0.00  0.00     0.115 C 
BRANCH  66  67
ATOM     67  C   UNK d   0     -18.528  18.169  23.027  0.00  0.00     0.139 C 
ATOM     68  O   UNK d   0     -18.799  17.873  24.248  0.00  0.00    -0.650 OA
BRANCH  67  69
ATOM     69  O   UNK d   0     -17.173  18.396  22.791  0.00  0.00    -0.776 OA
ATOM     70  H   UNK d   0     -16.894  19.383  22.694  0.00  0.00     0.167 HD
ENDBRANCH  67  69
ENDBRANCH  66  67
ENDBRANCH  65  66
ENDBRANCH  14  65
ENDBRANCH   6   7
ENDBRANCH   5   6
ENDBRANCH   2   5
TORSDOF 28
ENDMDL
MODEL 10
REMARK VINA RESULT:      -7.0      1.619      7.858
REMARK  28 active torsions:
REMARK  status: ('A' for Active; 'I' for Inactive)
REMARK    1  A    between atoms: C_2  and  O_3 
REMARK    2  A    between atoms: C_2  and  C_4 
REMARK    3  A    between atoms: C_4  and  C_5 
REMARK    4  A    between atoms: C_5  and  C_6 
REMARK    5  A    between atoms: C_7  and  C_8 
REMARK    6  A    between atoms: C_8  and  C_9 
REMARK    7  A    between atoms: C_9  and  O_11 
REMARK    8  A    between atoms: C_28  and  C_29 
REMARK    9  A    between atoms: C_29  and  C_30 
REMARK   10  A    between atoms: C_30  and  O_32 
REMARK   11  A    between atoms: C_33  and  C_34 
REMARK   12  A    between atoms: C_34  and  C_35 
REMARK   13  A    between atoms: C_35  and  C_36 
REMARK   14  A    between atoms: C_36  and  O_38 
REMARK   15  A    between atoms: C_39  and  C_40 
REMARK   16  A    between atoms: C_40  and  C_41 
REMARK   17  A    between atoms: C_41  and  C_42 
REMARK   18  A    between atoms: C_42  and  O_44 
REMARK   19  A    between atoms: C_45  and  C_46 
REMARK   20  A    between atoms: C_46  and  C_47 
REMARK   21  A    between atoms: C_47  and  O_49 
REMARK   22  A    between atoms: C_50  and  C_51 
REMARK   23  A    between atoms: C_51  and  C_52 
REMARK   24  A    between atoms: C_52  and  O_54 
REMARK   25  A    between atoms: C_55  and  C_56 
REMARK   26  A    between atoms: C_56  and  C_57 
REMARK   27  A    between atoms: C_57  and  C_58 
REMARK   28  A    between atoms: C_58  and  O_60 
ROOT
ATOM      1  O   UNK d   0     -22.443  35.241  17.712  0.00  0.00    -0.650 OA
ATOM      2  C   UNK d   0     -21.368  34.630  17.898  0.00  0.00     0.139 C 
ENDROOT
BRANCH   2   3
ATOM      3  O   UNK d   0     -20.198  35.162  17.412  0.00  0.00    -0.776 OA
ATOM      4  H   UNK d   0     -20.087  36.171  17.292  0.00  0.00     0.167 HD
ENDBRANCH   2   3
BRANCH   2   5
ATOM      5  C   UNK d   0     -21.361  33.335  18.637  0.00  0.00     0.115 C 
BRANCH   5   6
ATOM      6  C   UNK d   0     -22.746  33.012  19.128  0.00  0.00     0.052 C 
BRANCH   6   7
ATOM      7  C   UNK d   0     -23.288  31.733  18.537  0.00  0.00    -0.020 A 
ATOM      8  C   UNK d   0     -24.236  31.606  17.644  0.00  0.00    -0.011 A 
ATOM      9  C   UNK d   0     -24.421  30.187  17.390  0.00  0.00     0.067 A 
ATOM     10  C   UNK d   0     -25.235  29.405  16.556  0.00  0.00     0.062 C 
ATOM     11  N   UNK d   0     -23.547  29.523  18.175  0.00  0.00    -0.248 NA
ATOM     12  C   UNK d   0     -25.076  28.051  16.244  0.00  0.00     0.041 A 
ATOM     13  N   UNK d   0     -24.759  26.995  17.017  0.00  0.00    -0.355 N 
ATOM     14  C   UNK d   0     -25.198  27.642  14.904  0.00  0.00    -0.022 A 
ATOM     15  C   UNK d   0     -24.669  25.928  16.201  0.00  0.00     0.042 A 
ATOM     16  H   UNK d   0     -24.620  26.999  18.121  0.00  0.00     0.166 HD
ATOM     17  C   UNK d   0     -24.367  24.581  16.487  0.00  0.00     0.062 C 
ATOM     18  C   UNK d   0     -24.937  26.294  14.868  0.00  0.00    -0.013 A 
ATOM     19  C   UNK d   0     -23.381  24.071  17.292  0.00  0.00     0.067 A 
ATOM     20  N   UNK d   0     -22.730  24.936  18.074  0.00  0.00    -0.248 NA
ATOM     21  C   UNK d   0     -22.803  22.759  17.532  0.00  0.00    -0.011 A 
ATOM     22  C   UNK d   0     -21.768  24.286  18.807  0.00  0.00     0.066 A 
ATOM     23  C   UNK d   0     -21.038  25.063  19.694  0.00  0.00     0.062 C 
ATOM     24  C   UNK d   0     -21.857  22.892  18.416  0.00  0.00    -0.020 A 
ATOM     25  C   UNK d   0     -21.223  26.420  20.001  0.00  0.00     0.041 A 
ATOM     26  N   UNK d   0     -21.523  27.472  19.231  0.00  0.00    -0.355 N 
ATOM     27  C   UNK d   0     -21.104  26.829  21.348  0.00  0.00    -0.022 A 
ATOM     28  C   UNK d   0     -21.605  28.539  20.042  0.00  0.00     0.042 A 
ATOM     29  H   UNK d   0     -21.651  27.468  18.120  0.00  0.00     0.166 HD
ATOM     30  C   UNK d   0     -21.895  29.885  19.769  0.00  0.00     0.062 C 
ATOM     31  C   UNK d   0     -21.345  28.168  21.382  0.00  0.00    -0.013 A 
ATOM     32  C   UNK d   0     -22.836  30.396  18.890  0.00  0.00     0.066 A 
BRANCH   8  33
ATOM     33  C   UNK d   0     -24.999  32.693  17.002  0.00  0.00     0.151 C 
BRANCH  33  34
ATOM     34  C   UNK d   0     -24.436  33.092  15.699  0.00  0.00     0.143 C 
ATOM     35  O   UNK d   0     -24.422  34.280  15.348  0.00  0.00    -0.650 OA
BRANCH  34  36
ATOM     36  O   UNK d   0     -23.922  32.128  14.862  0.00  0.00    -0.776 OA
ATOM     37  H   UNK d   0     -22.989  32.230  14.440  0.00  0.00     0.167 HD
ENDBRANCH  34  36
ENDBRANCH  33  34
ENDBRANCH   8  33
BRANCH  31  38
ATOM     38  C   UNK d   0     -21.343  29.043  22.614  0.00  0.00     0.151 C 
BRANCH  38  39
ATOM     39  C   UNK d   0     -20.310  30.057  22.581  0.00  0.00     0.143 C 
ATOM     40  O   UNK d   0     -20.548  31.256  22.808  0.00  0.00    -0.650 OA
BRANCH  39  41
ATOM     41  O   UNK d   0     -18.997  29.690  22.286  0.00  0.00    -0.776 OA
ATOM     42  H   UNK d   0     -18.690  28.769  22.616  0.00  0.00     0.167 HD
ENDBRANCH  39  41
ENDBRANCH  38  39
ENDBRANCH  31  38
BRANCH  27  43
ATOM     43  C   UNK d   0     -20.776  26.012  22.572  0.00  0.00     0.052 C 
BRANCH  43  44
ATOM     44  C   UNK d   0     -19.382  25.472  22.566  0.00  0.00     0.115 C 
BRANCH  44  45
ATOM     45  C   UNK d   0     -18.496  26.582  23.003  0.00  0.00     0.139 C 
ATOM     46  O   UNK d   0     -17.549  26.915  22.248  0.00  0.00    -0.650 OA
BRANCH  45  47
ATOM     47  O   UNK d   0     -18.674  27.258  24.191  0.00  0.00    -0.776 OA
ATOM     48  H   UNK d   0     -19.604  27.420  24.609  0.00  0.00     0.167 HD
ENDBRANCH  45  47
ENDBRANCH  44  45
ENDBRANCH  43  44
ENDBRANCH  27  43
BRANCH  24  49
ATOM     49  C   UNK d   0     -21.035  21.807  18.979  0.00  0.00     0.052 C 
BRANCH  49  50
ATOM     50  C   UNK d   0     -19.646  21.844  18.394  0.00  0.00     0.115 C 
BRANCH  50  51
ATOM     51  C   UNK d   0     -18.696  20.850  18.874  0.00  0.00     0.139 C 
ATOM     52  O   UNK d   0     -17.548  21.151  19.276  0.00  0.00    -0.650 OA
BRANCH  51  53
ATOM     53  O   UNK d   0     -19.055  19.511  18.892  0.00  0.00    -0.776 OA
ATOM     54  H   UNK d   0     -18.525  18.885  19.473  0.00  0.00     0.167 HD
ENDBRANCH  51  53
ENDBRANCH  50  51
ENDBRANCH  49  50
ENDBRANCH  24  49
BRANCH  21  55
ATOM     55  C   UNK d   0     -23.260  21.509  16.856  0.00  0.00     0.151 C 
BRANCH  55  56
ATOM     56  C   UNK d   0     -22.664  21.355  15.520  0.00  0.00     0.143 C 
ATOM     57  O   UNK d   0     -22.045  22.274  14.947  0.00  0.00    -0.650 OA
BRANCH  56  58
ATOM     58  O   UNK d   0     -22.807  20.123  14.883  0.00  0.00    -0.776 OA
ATOM     59  H   UNK d   0     -22.936  20.175  13.857  0.00  0.00     0.167 HD
ENDBRANCH  56  58
ENDBRANCH  55  56
ENDBRANCH  21  55
BRANCH  18  60
ATOM     60  C   UNK d   0     -24.950  25.445  13.621  0.00  0.00     0.151 C 
BRANCH  60  61
ATOM     61  C   UNK d   0     -26.350  25.040  13.423  0.00  0.00     0.143 C 
ATOM     62  O   UNK d   0     -27.144  25.494  12.599  0.00  0.00    -0.650 OA
BRANCH  61  63
ATOM     63  O   UNK d   0     -26.809  24.015  14.285  0.00  0.00    -0.776 OA
ATOM     64  H   UNK d   0     -27.592  24.163  14.896  0.00  0.00     0.167 HD
ENDBRANCH  61  63
ENDBRANCH  60  61
ENDBRANCH  18  60
BRANCH  14  65
ATOM     65  C   UNK d   0     -25.634  28.400  13.683  0.00  0.00     0.052 C 
BRANCH  65  66
ATOM     66  C   UNK d   0     -26.894  29.164  13.891  0.00  0.00     0.115 C 
BRANCH  66  67
ATOM     67  C   UNK d   0     -28.110  28.462  14.192  0.00  0.00     0.139 C 
ATOM     68  O   UNK d   0     -28.870  28.105  13.217  0.00  0.00    -0.650 OA
BRANCH  67  69
ATOM     69  O   UNK d   0     -28.599  28.100  15.447  0.00  0.00    -0.776 OA
ATOM     70  H   UNK d   0     -27.893  27.995  16.189  0.00  0.00     0.167 HD
ENDBRANCH  67  69
ENDBRANCH  66  67
ENDBRANCH  65  66
ENDBRANCH  14  65
ENDBRANCH   6   7
ENDBRANCH   5   6
ENDBRANCH   2   5
TORSDOF 28
ENDMDL
MODEL 11
REMARK VINA RESULT:      -7.0      5.863     10.397
REMARK  28 active torsions:
REMARK  status: ('A' for Active; 'I' for Inactive)
REMARK    1  A    between atoms: C_2  and  O_3 
REMARK    2  A    between atoms: C_2  and  C_4 
REMARK    3  A    between atoms: C_4  and  C_5 
REMARK    4  A    between atoms: C_5  and  C_6 
REMARK    5  A    between atoms: C_7  and  C_8 
REMARK    6  A    between atoms: C_8  and  C_9 
REMARK    7  A    between atoms: C_9  and  O_11 
REMARK    8  A    between atoms: C_28  and  C_29 
REMARK    9  A    between atoms: C_29  and  C_30 
REMARK   10  A    between atoms: C_30  and  O_32 
REMARK   11  A    between atoms: C_33  and  C_34 
REMARK   12  A    between atoms: C_34  and  C_35 
REMARK   13  A    between atoms: C_35  and  C_36 
REMARK   14  A    between atoms: C_36  and  O_38 
REMARK   15  A    between atoms: C_39  and  C_40 
REMARK   16  A    between atoms: C_40  and  C_41 
REMARK   17  A    between atoms: C_41  and  C_42 
REMARK   18  A    between atoms: C_42  and  O_44 
REMARK   19  A    between atoms: C_45  and  C_46 
REMARK   20  A    between atoms: C_46  and  C_47 
REMARK   21  A    between atoms: C_47  and  O_49 
REMARK   22  A    between atoms: C_50  and  C_51 
REMARK   23  A    between atoms: C_51  and  C_52 
REMARK   24  A    between atoms: C_52  and  O_54 
REMARK   25  A    between atoms: C_55  and  C_56 
REMARK   26  A    between atoms: C_56  and  C_57 
REMARK   27  A    between atoms: C_57  and  C_58 
REMARK   28  A    between atoms: C_58  and  O_60 
ROOT
ATOM      1  O   UNK d   0     -25.633  14.341  21.245  0.00  0.00    -0.650 OA
ATOM      2  C   UNK d   0     -24.605  13.709  20.915  0.00  0.00     0.139 C 
ENDROOT
BRANCH   2   3
ATOM      3  O   UNK d   0     -24.599  12.999  19.739  0.00  0.00    -0.776 OA
ATOM      4  H   UNK d   0     -25.451  12.886  19.187  0.00  0.00     0.167 HD
ENDBRANCH   2   3
BRANCH   2   5
ATOM      5  C   UNK d   0     -23.401  13.729  21.794  0.00  0.00     0.115 C 
BRANCH   5   6
ATOM      6  C   UNK d   0     -22.217  14.269  21.037  0.00  0.00     0.052 C 
BRANCH   6   7
ATOM      7  C   UNK d   0     -22.279  15.766  20.853  0.00  0.00    -0.020 A 
ATOM      8  C   UNK d   0     -21.963  16.691  21.723  0.00  0.00    -0.011 A 
ATOM      9  C   UNK d   0     -22.192  17.984  21.100  0.00  0.00     0.067 A 
ATOM     10  C   UNK d   0     -22.037  19.329  21.472  0.00  0.00     0.062 C 
ATOM     11  N   UNK d   0     -22.653  17.752  19.853  0.00  0.00    -0.248 NA
ATOM     12  C   UNK d   0     -22.048  20.447  20.631  0.00  0.00     0.041 A 
ATOM     13  N   UNK d   0     -22.845  20.768  19.594  0.00  0.00    -0.355 N 
ATOM     14  C   UNK d   0     -21.056  21.431  20.793  0.00  0.00    -0.022 A 
ATOM     15  C   UNK d   0     -22.379  21.926  19.089  0.00  0.00     0.042 A 
ATOM     16  H   UNK d   0     -23.731  20.198  19.238  0.00  0.00     0.166 HD
ATOM     17  C   UNK d   0     -22.839  22.701  18.006  0.00  0.00     0.062 C 
ATOM     18  C   UNK d   0     -21.258  22.372  19.815  0.00  0.00    -0.013 A 
ATOM     19  C   UNK d   0     -23.228  22.292  16.756  0.00  0.00     0.067 A 
ATOM     20  N   UNK d   0     -23.389  20.979  16.573  0.00  0.00    -0.248 NA
ATOM     21  C   UNK d   0     -23.518  22.940  15.488  0.00  0.00    -0.011 A 
ATOM     22  C   UNK d   0     -23.762  20.721  15.276  0.00  0.00     0.066 A 
ATOM     23  C   UNK d   0     -24.001  19.393  14.956  0.00  0.00     0.062 C 
ATOM     24  C   UNK d   0     -23.825  22.015  14.625  0.00  0.00    -0.020 A 
ATOM     25  C   UNK d   0     -23.997  18.286  15.819  0.00  0.00     0.041 A 
ATOM     26  N   UNK d   0     -23.196  17.959  16.840  0.00  0.00    -0.355 N 
ATOM     27  C   UNK d   0     -24.996  17.301  15.658  0.00  0.00    -0.022 A 
ATOM     28  C   UNK d   0     -23.653  16.800  17.339  0.00  0.00     0.042 A 
ATOM     29  H   UNK d   0     -22.299  18.528  17.190  0.00  0.00     0.166 HD
ATOM     30  C   UNK d   0     -23.200  16.014  18.410  0.00  0.00     0.062 C 
ATOM     31  C   UNK d   0     -24.786  16.358  16.616  0.00  0.00    -0.013 A 
ATOM     32  C   UNK d   0     -22.727  16.437  19.642  0.00  0.00     0.066 A 
BRANCH   8  33
ATOM     33  C   UNK d   0     -21.467  16.482  23.096  0.00  0.00     0.151 C 
BRANCH  33  34
ATOM     34  C   UNK d   0     -20.068  16.912  23.269  0.00  0.00     0.143 C 
ATOM     35  O   UNK d   0     -19.737  17.638  24.217  0.00  0.00    -0.650 OA
BRANCH  34  36
ATOM     36  O   UNK d   0     -19.118  16.501  22.362  0.00  0.00    -0.776 OA
ATOM     37  H   UNK d   0     -19.196  15.595  21.880  0.00  0.00     0.167 HD
ENDBRANCH  34  36
ENDBRANCH  33  34
ENDBRANCH   8  33
BRANCH  31  38
ATOM     38  C   UNK d   0     -25.618  15.117  16.843  0.00  0.00     0.151 C 
BRANCH  38  39
ATOM     39  C   UNK d   0     -26.814  15.376  17.615  0.00  0.00     0.143 C 
ATOM     40  O   UNK d   0     -27.956  15.240  17.140  0.00  0.00    -0.650 OA
BRANCH  39  41
ATOM     41  O   UNK d   0     -26.699  15.793  18.941  0.00  0.00    -0.776 OA
ATOM     42  H   UNK d   0     -26.495  15.069  19.636  0.00  0.00     0.167 HD
ENDBRANCH  39  41
ENDBRANCH  38  39
ENDBRANCH  31  38
BRANCH  27  43
ATOM     43  C   UNK d   0     -26.114  17.226  14.649  0.00  0.00     0.052 C 
BRANCH  43  44
ATOM     44  C   UNK d   0     -27.203  18.219  14.898  0.00  0.00     0.115 C 
BRANCH  44  45
ATOM     45  C   UNK d   0     -27.644  18.709  13.566  0.00  0.00     0.139 C 
ATOM     46  O   UNK d   0     -26.950  19.589  13.000  0.00  0.00    -0.650 OA
BRANCH  45  47
ATOM     47  O   UNK d   0     -28.772  18.235  12.932  0.00  0.00    -0.776 OA
ATOM     48  H   UNK d   0     -29.439  17.590  13.384  0.00  0.00     0.167 HD
ENDBRANCH  45  47
ENDBRANCH  44  45
ENDBRANCH  43  44
ENDBRANCH  27  43
BRANCH  24  49
ATOM     49  C   UNK d   0     -24.226  22.233  13.224  0.00  0.00     0.052 C 
BRANCH  49  50
ATOM     50  C   UNK d   0     -25.717  22.431  13.130  0.00  0.00     0.115 C 
BRANCH  50  51
ATOM     51  C   UNK d   0     -26.192  23.777  12.843  0.00  0.00     0.139 C 
ATOM     52  O   UNK d   0     -25.418  24.719  12.548  0.00  0.00    -0.650 OA
BRANCH  51  53
ATOM     53  O   UNK d   0     -27.550  24.051  12.893  0.00  0.00    -0.776 OA
ATOM     54  H   UNK d   0     -27.838  25.011  12.974  0.00  0.00     0.167 HD
ENDBRANCH  51  53
ENDBRANCH  50  51
ENDBRANCH  49  50
ENDBRANCH  24  49
BRANCH  21  55
ATOM     55  C   UNK d   0     -23.461  24.416  15.272  0.00  0.00     0.151 C 
BRANCH  55  56
ATOM     56  C   UNK d   0     -22.077  24.910  15.199  0.00  0.00     0.143 C 
ATOM     57  O   UNK d   0     -21.139  24.224  14.749  0.00  0.00    -0.650 OA
BRANCH  56  58
ATOM     58  O   UNK d   0     -21.825  26.202  15.657  0.00  0.00    -0.776 OA
ATOM     59  H   UNK d   0     -22.138  26.959  15.023  0.00  0.00     0.167 HD
ENDBRANCH  56  58
ENDBRANCH  55  56
ENDBRANCH  21  55
BRANCH  18  60
ATOM     60  C   UNK d   0     -20.412  23.605  19.614  0.00  0.00     0.151 C 
BRANCH  60  61
ATOM     61  C   UNK d   0     -19.741  23.428  18.317  0.00  0.00     0.143 C 
ATOM     62  O   UNK d   0     -19.157  22.421  17.915  0.00  0.00    -0.650 OA
BRANCH  61  63
ATOM     63  O   UNK d   0     -19.788  24.551  17.457  0.00  0.00    -0.776 OA
ATOM     64  H   UNK d   0     -20.540  25.214  17.510  0.00  0.00     0.167 HD
ENDBRANCH  61  63
ENDBRANCH  60  61
ENDBRANCH  18  60
BRANCH  14  65
ATOM     65  C   UNK d   0     -20.004  21.597  21.853  0.00  0.00     0.052 C 
BRANCH  65  66
ATOM     66  C   UNK d   0     -18.659  21.136  21.414  0.00  0.00     0.115 C 
BRANCH  66  67
ATOM     67  C   UNK d   0     -18.271  19.770  21.625  0.00  0.00     0.139 C 
ATOM     68  O   UNK d   0     -18.604  18.894  20.744  0.00  0.00    -0.650 OA
BRANCH  67  69
ATOM     69  O   UNK d   0     -17.554  19.243  22.698  0.00  0.00    -0.776 OA
ATOM     70  H   UNK d   0     -16.666  18.778  22.459  0.00  0.00     0.167 HD
ENDBRANCH  67  69
ENDBRANCH  66  67
ENDBRANCH  65  66
ENDBRANCH  14  65
ENDBRANCH   6   7
ENDBRANCH   5   6
ENDBRANCH   2   5
TORSDOF 28
ENDMDL
MODEL 12
REMARK VINA RESULT:      -6.9      1.821      7.197
REMARK  28 active torsions:
REMARK  status: ('A' for Active; 'I' for Inactive)
REMARK    1  A    between atoms: C_2  and  O_3 
REMARK    2  A    between atoms: C_2  and  C_4 
REMARK    3  A    between atoms: C_4  and  C_5 
REMARK    4  A    between atoms: C_5  and  C_6 
REMARK    5  A    between atoms: C_7  and  C_8 
REMARK    6  A    between atoms: C_8  and  C_9 
REMARK    7  A    between atoms: C_9  and  O_11 
REMARK    8  A    between atoms: C_28  and  C_29 
REMARK    9  A    between atoms: C_29  and  C_30 
REMARK   10  A    between atoms: C_30  and  O_32 
REMARK   11  A    between atoms: C_33  and  C_34 
REMARK   12  A    between atoms: C_34  and  C_35 
REMARK   13  A    between atoms: C_35  and  C_36 
REMARK   14  A    between atoms: C_36  and  O_38 
REMARK   15  A    between atoms: C_39  and  C_40 
REMARK   16  A    between atoms: C_40  and  C_41 
REMARK   17  A    between atoms: C_41  and  C_42 
REMARK   18  A    between atoms: C_42  and  O_44 
REMARK   19  A    between atoms: C_45  and  C_46 
REMARK   20  A    between atoms: C_46  and  C_47 
REMARK   21  A    between atoms: C_47  and  O_49 
REMARK   22  A    between atoms: C_50  and  C_51 
REMARK   23  A    between atoms: C_51  and  C_52 
REMARK   24  A    between atoms: C_52  and  O_54 
REMARK   25  A    between atoms: C_55  and  C_56 
REMARK   26  A    between atoms: C_56  and  C_57 
REMARK   27  A    between atoms: C_57  and  C_58 
REMARK   28  A    between atoms: C_58  and  O_60 
ROOT
ATOM      1  O   UNK d   0     -24.109  33.306  17.768  0.00  0.00    -0.650 OA
ATOM      2  C   UNK d   0     -23.161  33.878  18.350  0.00  0.00     0.139 C 
ENDROOT
BRANCH   2   3
ATOM      3  O   UNK d   0     -23.158  35.248  18.446  0.00  0.00    -0.776 OA
ATOM      4  H   UNK d   0     -22.476  35.811  17.933  0.00  0.00     0.167 HD
ENDBRANCH   2   3
BRANCH   2   5
ATOM      5  C   UNK d   0     -22.047  33.076  18.932  0.00  0.00     0.115 C 
BRANCH   5   6
ATOM      6  C   UNK d   0     -22.580  32.126  19.970  0.00  0.00     0.052 C 
BRANCH   6   7
ATOM      7  C   UNK d   0     -22.220  30.688  19.681  0.00  0.00    -0.020 A 
ATOM      8  C   UNK d   0     -21.156  30.037  20.075  0.00  0.00    -0.011 A 
ATOM      9  C   UNK d   0     -21.241  28.685  19.547  0.00  0.00     0.067 A 
ATOM     10  C   UNK d   0     -20.462  27.520  19.617  0.00  0.00     0.062 C 
ATOM     11  N   UNK d   0     -22.387  28.603  18.838  0.00  0.00    -0.248 NA
ATOM     12  C   UNK d   0     -20.847  26.221  19.269  0.00  0.00     0.041 A 
ATOM     13  N   UNK d   0     -21.547  25.756  18.217  0.00  0.00    -0.355 N 
ATOM     14  C   UNK d   0     -20.536  25.162  20.142  0.00  0.00    -0.022 A 
ATOM     15  C   UNK d   0     -21.695  24.430  18.404  0.00  0.00     0.042 A 
ATOM     16  H   UNK d   0     -21.913  26.349  17.350  0.00  0.00     0.166 HD
ATOM     17  C   UNK d   0     -22.341  23.463  17.609  0.00  0.00     0.062 C 
ATOM     18  C   UNK d   0     -21.075  24.022  19.600  0.00  0.00    -0.013 A 
ATOM     19  C   UNK d   0     -23.564  23.531  16.992  0.00  0.00     0.067 A 
ATOM     20  N   UNK d   0     -24.158  24.726  16.956  0.00  0.00    -0.248 NA
ATOM     21  C   UNK d   0     -24.456  22.590  16.333  0.00  0.00    -0.011 A 
ATOM     22  C   UNK d   0     -25.374  24.635  16.324  0.00  0.00     0.066 A 
ATOM     23  C   UNK d   0     -26.085  25.818  16.183  0.00  0.00     0.062 C 
ATOM     24  C   UNK d   0     -25.515  23.242  15.949  0.00  0.00    -0.020 A 
ATOM     25  C   UNK d   0     -25.675  27.115  16.528  0.00  0.00     0.041 A 
ATOM     26  N   UNK d   0     -24.992  27.580  17.581  0.00  0.00    -0.355 N 
ATOM     27  C   UNK d   0     -25.984  28.177  15.649  0.00  0.00    -0.022 A 
ATOM     28  C   UNK d   0     -24.850  28.903  17.401  0.00  0.00     0.042 A 
ATOM     29  H   UNK d   0     -24.634  26.984  18.456  0.00  0.00     0.166 HD
ATOM     30  C   UNK d   0     -24.218  29.878  18.188  0.00  0.00     0.062 C 
ATOM     31  C   UNK d   0     -25.465  29.311  16.194  0.00  0.00    -0.013 A 
ATOM     32  C   UNK d   0     -23.022  29.775  18.880  0.00  0.00     0.066 A 
BRANCH   8  33
ATOM     33  C   UNK d   0     -20.054  30.561  20.902  0.00  0.00     0.151 C 
BRANCH  33  34
ATOM     34  C   UNK d   0     -20.392  30.616  22.336  0.00  0.00     0.143 C 
ATOM     35  O   UNK d   0     -20.796  29.608  22.934  0.00  0.00    -0.650 OA
BRANCH  34  36
ATOM     36  O   UNK d   0     -20.258  31.804  23.016  0.00  0.00    -0.776 OA
ATOM     37  H   UNK d   0     -20.012  32.675  22.527  0.00  0.00     0.167 HD
ENDBRANCH  34  36
ENDBRANCH  33  34
ENDBRANCH   8  33
BRANCH  31  38
ATOM     38  C   UNK d   0     -25.536  30.698  15.600  0.00  0.00     0.151 C 
BRANCH  38  39
ATOM     39  C   UNK d   0     -24.299  31.101  14.965  0.00  0.00     0.143 C 
ATOM     40  O   UNK d   0     -23.548  30.290  14.395  0.00  0.00    -0.650 OA
BRANCH  39  41
ATOM     41  O   UNK d   0     -23.923  32.444  14.984  0.00  0.00    -0.776 OA
ATOM     42  H   UNK d   0     -22.931  32.648  14.831  0.00  0.00     0.167 HD
ENDBRANCH  39  41
ENDBRANCH  38  39
ENDBRANCH  31  38
BRANCH  27  43
ATOM     43  C   UNK d   0     -26.738  28.151  14.343  0.00  0.00     0.052 C 
BRANCH  43  44
ATOM     44  C   UNK d   0     -25.880  27.793  13.173  0.00  0.00     0.115 C 
BRANCH  44  45
ATOM     45  C   UNK d   0     -26.763  27.104  12.195  0.00  0.00     0.139 C 
ATOM     46  O   UNK d   0     -26.548  27.289  10.972  0.00  0.00    -0.650 OA
BRANCH  45  47
ATOM     47  O   UNK d   0     -27.794  26.274  12.575  0.00  0.00    -0.776 OA
ATOM     48  H   UNK d   0     -27.913  25.934  13.544  0.00  0.00     0.167 HD
ENDBRANCH  45  47
ENDBRANCH  44  45
ENDBRANCH  43  44
ENDBRANCH  27  43
BRANCH  24  49
ATOM     49  C   UNK d   0     -26.657  22.683  15.206  0.00  0.00     0.052 C 
BRANCH  49  50
ATOM     50  C   UNK d   0     -26.703  23.249  13.810  0.00  0.00     0.115 C 
BRANCH  50  51
ATOM     51  C   UNK d   0     -25.495  23.132  13.005  0.00  0.00     0.139 C 
ATOM     52  O   UNK d   0     -25.169  22.070  12.424  0.00  0.00    -0.650 OA
BRANCH  51  53
ATOM     53  O   UNK d   0     -24.656  24.227  12.864  0.00  0.00    -0.776 OA
ATOM     54  H   UNK d   0     -23.874  24.149  12.238  0.00  0.00     0.167 HD
ENDBRANCH  51  53
ENDBRANCH  50  51
ENDBRANCH  49  50
ENDBRANCH  24  49
BRANCH  21  55
ATOM     55  C   UNK d   0     -24.154  21.139  16.154  0.00  0.00     0.151 C 
BRANCH  55  56
ATOM     56  C   UNK d   0     -23.175  20.908  15.081  0.00  0.00     0.143 C 
ATOM     57  O   UNK d   0     -22.633  21.837  14.449  0.00  0.00    -0.650 OA
BRANCH  56  58
ATOM     58  O   UNK d   0     -22.851  19.589  14.770  0.00  0.00    -0.776 OA
ATOM     59  H   UNK d   0     -23.193  19.261  13.849  0.00  0.00     0.167 HD
ENDBRANCH  56  58
ENDBRANCH  55  56
ENDBRANCH  21  55
BRANCH  18  60
ATOM     60  C   UNK d   0     -20.986  22.647  20.215  0.00  0.00     0.151 C 
BRANCH  60  61
ATOM     61  C   UNK d   0     -19.714  22.076  19.746  0.00  0.00     0.143 C 
ATOM     62  O   UNK d   0     -19.326  21.985  18.581  0.00  0.00    -0.650 OA
BRANCH  61  63
ATOM     63  O   UNK d   0     -18.861  21.586  20.764  0.00  0.00    -0.776 OA
ATOM     64  H   UNK d   0     -18.822  20.605  20.980  0.00  0.00     0.167 HD
ENDBRANCH  61  63
ENDBRANCH  60  61
ENDBRANCH  18  60
BRANCH  14  65
ATOM     65  C   UNK d   0     -19.693  25.131  21.385  0.00  0.00     0.052 C 
BRANCH  65  66
ATOM     66  C   UNK d   0     -19.323  26.487  21.871  0.00  0.00     0.115 C 
BRANCH  66  67
ATOM     67  C   UNK d   0     -18.676  26.635  23.144  0.00  0.00     0.139 C 
ATOM     68  O   UNK d   0     -17.921  25.682  23.563  0.00  0.00    -0.650 OA
BRANCH  67  69
ATOM     69  O   UNK d   0     -18.758  27.715  24.023  0.00  0.00    -0.776 OA
ATOM     70  H   UNK d   0     -18.233  28.557  23.749  0.00  0.00     0.167 HD
ENDBRANCH  67  69
ENDBRANCH  66  67
ENDBRANCH  65  66
ENDBRANCH  14  65
ENDBRANCH   6   7
ENDBRANCH   5   6
ENDBRANCH   2   5
TORSDOF 28
ENDMDL
MODEL 13
REMARK VINA RESULT:      -6.9      6.716     10.478
REMARK  28 active torsions:
REMARK  status: ('A' for Active; 'I' for Inactive)
REMARK    1  A    between atoms: C_2  and  O_3 
REMARK    2  A    between atoms: C_2  and  C_4 
REMARK    3  A    between atoms: C_4  and  C_5 
REMARK    4  A    between atoms: C_5  and  C_6 
REMARK    5  A    between atoms: C_7  and  C_8 
REMARK    6  A    between atoms: C_8  and  C_9 
REMARK    7  A    between atoms: C_9  and  O_11 
REMARK    8  A    between atoms: C_28  and  C_29 
REMARK    9  A    between atoms: C_29  and  C_30 
REMARK   10  A    between atoms: C_30  and  O_32 
REMARK   11  A    between atoms: C_33  and  C_34 
REMARK   12  A    between atoms: C_34  and  C_35 
REMARK   13  A    between atoms: C_35  and  C_36 
REMARK   14  A    between atoms: C_36  and  O_38 
REMARK   15  A    between atoms: C_39  and  C_40 
REMARK   16  A    between atoms: C_40  and  C_41 
REMARK   17  A    between atoms: C_41  and  C_42 
REMARK   18  A    between atoms: C_42  and  O_44 
REMARK   19  A    between atoms: C_45  and  C_46 
REMARK   20  A    between atoms: C_46  and  C_47 
REMARK   21  A    between atoms: C_47  and  O_49 
REMARK   22  A    between atoms: C_50  and  C_51 
REMARK   23  A    between atoms: C_51  and  C_52 
REMARK   24  A    between atoms: C_52  and  O_54 
REMARK   25  A    between atoms: C_55  and  C_56 
REMARK   26  A    between atoms: C_56  and  C_57 
REMARK   27  A    between atoms: C_57  and  C_58 
REMARK   28  A    between atoms: C_58  and  O_60 
ROOT
ATOM      1  O   UNK d   0     -23.303  14.513  24.246  0.00  0.00    -0.650 OA
ATOM      2  C   UNK d   0     -23.692  14.690  23.070  0.00  0.00     0.139 C 
ENDROOT
BRANCH   2   3
ATOM      3  O   UNK d   0     -24.838  15.413  22.841  0.00  0.00    -0.776 OA
ATOM      4  H   UNK d   0     -25.057  16.243  23.396  0.00  0.00     0.167 HD
ENDBRANCH   2   3
BRANCH   2   5
ATOM      5  C   UNK d   0     -22.917  14.120  21.932  0.00  0.00     0.115 C 
BRANCH   5   6
ATOM      6  C   UNK d   0     -21.668  14.927  21.700  0.00  0.00     0.052 C 
BRANCH   6   7
ATOM      7  C   UNK d   0     -21.957  16.294  21.127  0.00  0.00    -0.020 A 
ATOM      8  C   UNK d   0     -21.559  17.452  21.587  0.00  0.00    -0.011 A 
ATOM      9  C   UNK d   0     -22.090  18.485  20.712  0.00  0.00     0.067 A 
ATOM     10  C   UNK d   0     -22.018  19.884  20.638  0.00  0.00     0.062 C 
ATOM     11  N   UNK d   0     -22.804  17.865  19.749  0.00  0.00    -0.248 NA
ATOM     12  C   UNK d   0     -22.369  20.694  19.552  0.00  0.00     0.041 A 
ATOM     13  N   UNK d   0     -23.425  20.649  18.718  0.00  0.00    -0.355 N 
ATOM     14  C   UNK d   0     -21.497  21.727  19.163  0.00  0.00    -0.022 A 
ATOM     15  C   UNK d   0     -23.242  21.621  17.805  0.00  0.00     0.042 A 
ATOM     16  H   UNK d   0     -24.293  19.957  18.785  0.00  0.00     0.166 HD
ATOM     17  C   UNK d   0     -24.041  22.010  16.712  0.00  0.00     0.062 C 
ATOM     18  C   UNK d   0     -22.043  22.318  18.051  0.00  0.00    -0.013 A 
ATOM     19  C   UNK d   0     -24.665  21.224  15.776  0.00  0.00     0.067 A 
ATOM     20  N   UNK d   0     -24.701  19.911  16.017  0.00  0.00    -0.248 NA
ATOM     21  C   UNK d   0     -25.329  21.444  14.502  0.00  0.00    -0.011 A 
ATOM     22  C   UNK d   0     -25.340  19.256  14.993  0.00  0.00     0.066 A 
ATOM     23  C   UNK d   0     -25.482  17.884  15.133  0.00  0.00     0.062 C 
ATOM     24  C   UNK d   0     -25.718  20.288  14.047  0.00  0.00    -0.020 A 
ATOM     25  C   UNK d   0     -25.133  17.091  16.237  0.00  0.00     0.041 A 
ATOM     26  N   UNK d   0     -24.076  17.126  17.057  0.00  0.00    -0.355 N 
ATOM     27  C   UNK d   0     -26.012  16.057  16.630  0.00  0.00    -0.022 A 
ATOM     28  C   UNK d   0     -24.253  16.152  17.963  0.00  0.00     0.042 A 
ATOM     29  H   UNK d   0     -23.200  17.816  16.981  0.00  0.00     0.166 HD
ATOM     30  C   UNK d   0     -23.462  15.748  19.050  0.00  0.00     0.062 C 
ATOM     31  C   UNK d   0     -25.463  15.459  17.722  0.00  0.00    -0.013 A 
ATOM     32  C   UNK d   0     -22.763  16.546  19.942  0.00  0.00     0.066 A 
BRANCH   8  33
ATOM     33  C   UNK d   0     -20.726  17.692  22.780  0.00  0.00     0.151 C 
BRANCH  33  34
ATOM     34  C   UNK d   0     -19.287  17.763  22.466  0.00  0.00     0.143 C 
ATOM     35  O   UNK d   0     -18.492  18.306  23.246  0.00  0.00    -0.650 OA
BRANCH  34  36
ATOM     36  O   UNK d   0     -18.825  17.220  21.290  0.00  0.00    -0.776 OA
ATOM     37  H   UNK d   0     -17.958  16.667  21.261  0.00  0.00     0.167 HD
ENDBRANCH  34  36
ENDBRANCH  33  34
ENDBRANCH   8  33
BRANCH  31  38
ATOM     38  C   UNK d   0     -26.055  14.307  18.499  0.00  0.00     0.151 C 
BRANCH  38  39
ATOM     39  C   UNK d   0     -27.055  14.730  19.456  0.00  0.00     0.143 C 
ATOM     40  O   UNK d   0     -26.757  15.282  20.530  0.00  0.00    -0.650 OA
BRANCH  39  41
ATOM     41  O   UNK d   0     -28.405  14.519  19.177  0.00  0.00    -0.776 OA
ATOM     42  H   UNK d   0     -29.035  14.434  19.981  0.00  0.00     0.167 HD
ENDBRANCH  39  41
ENDBRANCH  38  39
ENDBRANCH  31  38
BRANCH  27  43
ATOM     43  C   UNK d   0     -27.322  15.628  16.017  0.00  0.00     0.052 C 
BRANCH  43  44
ATOM     44  C   UNK d   0     -28.471  16.497  16.412  0.00  0.00     0.115 C 
BRANCH  44  45
ATOM     45  C   UNK d   0     -29.694  15.864  15.852  0.00  0.00     0.139 C 
ATOM     46  O   UNK d   0     -30.142  14.838  16.420  0.00  0.00    -0.650 OA
BRANCH  45  47
ATOM     47  O   UNK d   0     -30.352  16.359  14.747  0.00  0.00    -0.776 OA
ATOM     48  H   UNK d   0     -31.205  16.937  14.815  0.00  0.00     0.167 HD
ENDBRANCH  45  47
ENDBRANCH  44  45
ENDBRANCH  43  44
ENDBRANCH  27  43
BRANCH  24  49
ATOM     49  C   UNK d   0     -26.467  20.053  12.801  0.00  0.00     0.052 C 
BRANCH  49  50
ATOM     50  C   UNK d   0     -27.940  20.285  13.022  0.00  0.00     0.115 C 
BRANCH  50  51
ATOM     51  C   UNK d   0     -28.745  19.131  13.400  0.00  0.00     0.139 C 
ATOM     52  O   UNK d   0     -29.877  19.240  13.927  0.00  0.00    -0.650 OA
BRANCH  51  53
ATOM     53  O   UNK d   0     -28.257  17.852  13.179  0.00  0.00    -0.776 OA
ATOM     54  H   UNK d   0     -28.538  17.375  12.340  0.00  0.00     0.167 HD
ENDBRANCH  51  53
ENDBRANCH  50  51
ENDBRANCH  49  50
ENDBRANCH  24  49
BRANCH  21  55
ATOM     55  C   UNK d   0     -25.509  22.787  13.875  0.00  0.00     0.151 C 
BRANCH  55  56
ATOM     56  C   UNK d   0     -24.228  23.377  13.458  0.00  0.00     0.143 C 
ATOM     57  O   UNK d   0     -23.956  24.583  13.621  0.00  0.00    -0.650 OA
BRANCH  56  58
ATOM     58  O   UNK d   0     -23.291  22.538  12.859  0.00  0.00    -0.776 OA
ATOM     59  H   UNK d   0     -22.507  22.251  13.472  0.00  0.00     0.167 HD
ENDBRANCH  56  58
ENDBRANCH  55  56
ENDBRANCH  21  55
BRANCH  18  60
ATOM     60  C   UNK d   0     -21.429  23.471  17.296  0.00  0.00     0.151 C 
BRANCH  60  61
ATOM     61  C   UNK d   0     -20.561  22.868  16.273  0.00  0.00     0.143 C 
ATOM     62  O   UNK d   0     -19.342  22.706  16.337  0.00  0.00    -0.650 OA
BRANCH  61  63
ATOM     63  O   UNK d   0     -21.223  22.434  15.100  0.00  0.00    -0.776 OA
ATOM     64  H   UNK d   0     -22.220  22.314  15.081  0.00  0.00     0.167 HD
ENDBRANCH  61  63
ENDBRANCH  60  61
ENDBRANCH  18  60
BRANCH  14  65
ATOM     65  C   UNK d   0     -20.250  22.255  19.813  0.00  0.00     0.052 C 
BRANCH  65  66
ATOM     66  C   UNK d   0     -19.034  21.473  19.461  0.00  0.00     0.115 C 
BRANCH  66  67
ATOM     67  C   UNK d   0     -18.336  20.744  20.482  0.00  0.00     0.139 C 
ATOM     68  O   UNK d   0     -18.364  21.195  21.686  0.00  0.00    -0.650 OA
BRANCH  67  69
ATOM     69  O   UNK d   0     -17.601  19.568  20.340  0.00  0.00    -0.776 OA
ATOM     70  H   UNK d   0     -16.986  19.521  19.515  0.00  0.00     0.167 HD
ENDBRANCH  67  69
ENDBRANCH  66  67
ENDBRANCH  65  66
ENDBRANCH  14  65
ENDBRANCH   6   7
ENDBRANCH   5   6
ENDBRANCH   2   5
TORSDOF 28
ENDMDL
MODEL 14
REMARK VINA RESULT:      -6.9      5.902     11.299
REMARK  28 active torsions:
REMARK  status: ('A' for Active; 'I' for Inactive)
REMARK    1  A    between atoms: C_2  and  O_3 
REMARK    2  A    between atoms: C_2  and  C_4 
REMARK    3  A    between atoms: C_4  and  C_5 
REMARK    4  A    between atoms: C_5  and  C_6 
REMARK    5  A    between atoms: C_7  and  C_8 
REMARK    6  A    between atoms: C_8  and  C_9 
REMARK    7  A    between atoms: C_9  and  O_11 
REMARK    8  A    between atoms: C_28  and  C_29 
REMARK    9  A    between atoms: C_29  and  C_30 
REMARK   10  A    between atoms: C_30  and  O_32 
REMARK   11  A    between atoms: C_33  and  C_34 
REMARK   12  A    between atoms: C_34  and  C_35 
REMARK   13  A    between atoms: C_35  and  C_36 
REMARK   14  A    between atoms: C_36  and  O_38 
REMARK   15  A    between atoms: C_39  and  C_40 
REMARK   16  A    between atoms: C_40  and  C_41 
REMARK   17  A    between atoms: C_41  and  C_42 
REMARK   18  A    between atoms: C_42  and  O_44 
REMARK   19  A    between atoms: C_45  and  C_46 
REMARK   20  A    between atoms: C_46  and  C_47 
REMARK   21  A    between atoms: C_47  and  O_49 
REMARK   22  A    between atoms: C_50  and  C_51 
REMARK   23  A    between atoms: C_51  and  C_52 
REMARK   24  A    between atoms: C_52  and  O_54 
REMARK   25  A    between atoms: C_55  and  C_56 
REMARK   26  A    between atoms: C_56  and  C_57 
REMARK   27  A    between atoms: C_57  and  C_58 
REMARK   28  A    between atoms: C_58  and  O_60 
ROOT
ATOM      1  O   UNK d   0     -27.548  14.998  20.104  0.00  0.00    -0.650 OA
ATOM      2  C   UNK d   0     -26.985  14.287  19.242  0.00  0.00     0.139 C 
ENDROOT
BRANCH   2   3
ATOM      3  O   UNK d   0     -27.409  14.350  17.936  0.00  0.00    -0.776 OA
ATOM      4  H   UNK d   0     -26.804  14.049  17.170  0.00  0.00     0.167 HD
ENDBRANCH   2   3
BRANCH   2   5
ATOM      5  C   UNK d   0     -25.867  13.382  19.631  0.00  0.00     0.115 C 
BRANCH   5   6
ATOM      6  C   UNK d   0     -24.621  13.740  18.867  0.00  0.00     0.052 C 
BRANCH   6   7
ATOM      7  C   UNK d   0     -24.156  15.151  19.140  0.00  0.00    -0.020 A 
ATOM      8  C   UNK d   0     -23.673  15.629  20.258  0.00  0.00    -0.011 A 
ATOM      9  C   UNK d   0     -23.373  17.035  20.047  0.00  0.00     0.067 A 
ATOM     10  C   UNK d   0     -22.832  18.081  20.812  0.00  0.00     0.062 C 
ATOM     11  N   UNK d   0     -23.711  17.331  18.775  0.00  0.00    -0.248 NA
ATOM     12  C   UNK d   0     -22.357  19.312  20.347  0.00  0.00     0.041 A 
ATOM     13  N   UNK d   0     -22.854  20.165  19.431  0.00  0.00    -0.355 N 
ATOM     14  C   UNK d   0     -21.126  19.793  20.830  0.00  0.00    -0.022 A 
ATOM     15  C   UNK d   0     -21.966  21.171  19.314  0.00  0.00     0.042 A 
ATOM     16  H   UNK d   0     -23.822  20.068  18.892  0.00  0.00     0.166 HD
ATOM     17  C   UNK d   0     -21.991  22.321  18.501  0.00  0.00     0.062 C 
ATOM     18  C   UNK d   0     -20.869  20.972  20.175  0.00  0.00    -0.013 A 
ATOM     19  C   UNK d   0     -22.319  22.433  17.174  0.00  0.00     0.067 A 
ATOM     20  N   UNK d   0     -22.881  21.367  16.598  0.00  0.00    -0.248 NA
ATOM     21  C   UNK d   0     -22.203  23.459  16.151  0.00  0.00    -0.011 A 
ATOM     22  C   UNK d   0     -23.138  21.621  15.273  0.00  0.00     0.066 A 
ATOM     23  C   UNK d   0     -23.759  20.605  14.560  0.00  0.00     0.062 C 
ATOM     24  C   UNK d   0     -22.680  22.976  15.040  0.00  0.00    -0.020 A 
ATOM     25  C   UNK d   0     -24.240  19.381  15.049  0.00  0.00     0.041 A 
ATOM     26  N   UNK d   0     -23.739  18.526  15.949  0.00  0.00    -0.355 N 
ATOM     27  C   UNK d   0     -25.478  18.901  14.567  0.00  0.00    -0.022 A 
ATOM     28  C   UNK d   0     -24.619  17.518  16.061  0.00  0.00     0.042 A 
ATOM     29  H   UNK d   0     -22.761  18.619  16.481  0.00  0.00     0.166 HD
ATOM     30  C   UNK d   0     -24.602  16.363  16.858  0.00  0.00     0.062 C 
ATOM     31  C   UNK d   0     -25.725  17.723  15.203  0.00  0.00    -0.013 A 
ATOM     32  C   UNK d   0     -24.188  16.239  18.175  0.00  0.00     0.066 A 
BRANCH   8  33
ATOM     33  C   UNK d   0     -23.465  14.893  21.519  0.00  0.00     0.151 C 
BRANCH  33  34
ATOM     34  C   UNK d   0     -24.327  15.380  22.612  0.00  0.00     0.143 C 
ATOM     35  O   UNK d   0     -23.837  15.907  23.621  0.00  0.00    -0.650 OA
BRANCH  34  36
ATOM     36  O   UNK d   0     -25.692  15.245  22.507  0.00  0.00    -0.776 OA
ATOM     37  H   UNK d   0     -26.152  15.170  21.590  0.00  0.00     0.167 HD
ENDBRANCH  34  36
ENDBRANCH  33  34
ENDBRANCH   8  33
BRANCH  31  38
ATOM     38  C   UNK d   0     -26.944  16.850  15.018  0.00  0.00     0.151 C 
BRANCH  38  39
ATOM     39  C   UNK d   0     -28.067  17.275  15.827  0.00  0.00     0.143 C 
ATOM     40  O   UNK d   0     -29.101  17.757  15.330  0.00  0.00    -0.650 OA
BRANCH  39  41
ATOM     41  O   UNK d   0     -28.002  17.146  17.214  0.00  0.00    -0.776 OA
ATOM     42  H   UNK d   0     -27.951  18.014  17.757  0.00  0.00     0.167 HD
ENDBRANCH  39  41
ENDBRANCH  38  39
ENDBRANCH  31  38
BRANCH  27  43
ATOM     43  C   UNK d   0     -26.409  19.507  13.548  0.00  0.00     0.052 C 
BRANCH  43  44
ATOM     44  C   UNK d   0     -27.311  20.552  14.119  0.00  0.00     0.115 C 
BRANCH  44  45
ATOM     45  C   UNK d   0     -28.205  20.991  13.016  0.00  0.00     0.139 C 
ATOM     46  O   UNK d   0     -28.931  20.127  12.464  0.00  0.00    -0.650 OA
BRANCH  45  47
ATOM     47  O   UNK d   0     -28.272  22.297  12.583  0.00  0.00    -0.776 OA
ATOM     48  H   UNK d   0     -29.161  22.760  12.333  0.00  0.00     0.167 HD
ENDBRANCH  45  47
ENDBRANCH  44  45
ENDBRANCH  43  44
ENDBRANCH  27  43
BRANCH  24  49
ATOM     49  C   UNK d   0     -22.791  23.693  13.759  0.00  0.00     0.052 C 
BRANCH  49  50
ATOM     50  C   UNK d   0     -24.036  24.542  13.739  0.00  0.00     0.115 C 
BRANCH  50  51
ATOM     51  C   UNK d   0     -25.289  23.877  13.407  0.00  0.00     0.139 C 
ATOM     52  O   UNK d   0     -26.305  23.946  14.138  0.00  0.00    -0.650 OA
BRANCH  51  53
ATOM     53  O   UNK d   0     -25.383  23.132  12.242  0.00  0.00    -0.776 OA
ATOM     54  H   UNK d   0     -24.550  22.995  11.697  0.00  0.00     0.167 HD
ENDBRANCH  51  53
ENDBRANCH  50  51
ENDBRANCH  49  50
ENDBRANCH  24  49
BRANCH  21  55
ATOM     55  C   UNK d   0     -21.631  24.817  16.392  0.00  0.00     0.151 C 
BRANCH  55  56
ATOM     56  C   UNK d   0     -20.167  24.781  16.537  0.00  0.00     0.143 C 
ATOM     57  O   UNK d   0     -19.445  23.993  15.896  0.00  0.00    -0.650 OA
BRANCH  56  58
ATOM     58  O   UNK d   0     -19.582  25.673  17.434  0.00  0.00    -0.776 OA
ATOM     59  H   UNK d   0     -18.548  25.628  17.481  0.00  0.00     0.167 HD
ENDBRANCH  56  58
ENDBRANCH  55  56
ENDBRANCH  21  55
BRANCH  18  60
ATOM     60  C   UNK d   0     -19.643  21.826  20.382  0.00  0.00     0.151 C 
BRANCH  60  61
ATOM     61  C   UNK d   0     -18.687  21.418  19.341  0.00  0.00     0.143 C 
ATOM     62  O   UNK d   0     -18.849  21.471  18.122  0.00  0.00    -0.650 OA
BRANCH  61  63
ATOM     63  O   UNK d   0     -17.453  20.914  19.821  0.00  0.00    -0.776 OA
ATOM     64  H   UNK d   0     -17.390  20.466  20.718  0.00  0.00     0.167 HD
ENDBRANCH  61  63
ENDBRANCH  60  61
ENDBRANCH  18  60
BRANCH  14  65
ATOM     65  C   UNK d   0     -20.233  19.279  21.922  0.00  0.00     0.052 C 
BRANCH  65  66
ATOM     66  C   UNK d   0     -19.405  18.118  21.498  0.00  0.00     0.115 C 
BRANCH  66  67
ATOM     67  C   UNK d   0     -17.980  18.261  21.391  0.00  0.00     0.139 C 
ATOM     68  O   UNK d   0     -17.438  18.155  20.229  0.00  0.00    -0.650 OA
BRANCH  67  69
ATOM     69  O   UNK d   0     -17.068  18.509  22.416  0.00  0.00    -0.776 OA
ATOM     70  H   UNK d   0     -16.325  19.188  22.200  0.00  0.00     0.167 HD
ENDBRANCH  67  69
ENDBRANCH  66  67
ENDBRANCH  65  66
ENDBRANCH  14  65
ENDBRANCH   6   7
ENDBRANCH   5   6
ENDBRANCH   2   5
TORSDOF 28
ENDMDL
MODEL 15
REMARK VINA RESULT:      -6.9      5.249     10.124
REMARK  28 active torsions:
REMARK  status: ('A' for Active; 'I' for Inactive)
REMARK    1  A    between atoms: C_2  and  O_3 
REMARK    2  A    between atoms: C_2  and  C_4 
REMARK    3  A    between atoms: C_4  and  C_5 
REMARK    4  A    between atoms: C_5  and  C_6 
REMARK    5  A    between atoms: C_7  and  C_8 
REMARK    6  A    between atoms: C_8  and  C_9 
REMARK    7  A    between atoms: C_9  and  O_11 
REMARK    8  A    between atoms: C_28  and  C_29 
REMARK    9  A    between atoms: C_29  and  C_30 
REMARK   10  A    between atoms: C_30  and  O_32 
REMARK   11  A    between atoms: C_33  and  C_34 
REMARK   12  A    between atoms: C_34  and  C_35 
REMARK   13  A    between atoms: C_35  and  C_36 
REMARK   14  A    between atoms: C_36  and  O_38 
REMARK   15  A    between atoms: C_39  and  C_40 
REMARK   16  A    between atoms: C_40  and  C_41 
REMARK   17  A    between atoms: C_41  and  C_42 
REMARK   18  A    between atoms: C_42  and  O_44 
REMARK   19  A    between atoms: C_45  and  C_46 
REMARK   20  A    between atoms: C_46  and  C_47 
REMARK   21  A    between atoms: C_47  and  O_49 
REMARK   22  A    between atoms: C_50  and  C_51 
REMARK   23  A    between atoms: C_51  and  C_52 
REMARK   24  A    between atoms: C_52  and  O_54 
REMARK   25  A    between atoms: C_55  and  C_56 
REMARK   26  A    between atoms: C_56  and  C_57 
REMARK   27  A    between atoms: C_57  and  C_58 
REMARK   28  A    between atoms: C_58  and  O_60 
ROOT
ATOM      1  O   UNK d   0     -21.188  25.859  22.575  0.00  0.00    -0.650 OA
ATOM      2  C   UNK d   0     -20.530  25.712  21.521  0.00  0.00     0.139 C 
ENDROOT
BRANCH   2   3
ATOM      3  O   UNK d   0     -19.418  24.904  21.529  0.00  0.00    -0.776 OA
ATOM      4  H   UNK d   0     -19.434  23.980  21.092  0.00  0.00     0.167 HD
ENDBRANCH   2   3
BRANCH   2   5
ATOM      5  C   UNK d   0     -20.950  26.408  20.272  0.00  0.00     0.115 C 
BRANCH   5   6
ATOM      6  C   UNK d   0     -20.488  25.634  19.067  0.00  0.00     0.052 C 
BRANCH   6   7
ATOM      7  C   UNK d   0     -21.527  24.659  18.569  0.00  0.00    -0.020 A 
ATOM      8  C   UNK d   0     -22.576  24.918  17.831  0.00  0.00    -0.011 A 
ATOM      9  C   UNK d   0     -23.286  23.668  17.612  0.00  0.00     0.067 A 
ATOM     10  C   UNK d   0     -24.434  23.265  16.914  0.00  0.00     0.062 C 
ATOM     11  N   UNK d   0     -22.601  22.701  18.258  0.00  0.00    -0.248 NA
ATOM     12  C   UNK d   0     -24.811  21.958  16.586  0.00  0.00     0.041 A 
ATOM     13  N   UNK d   0     -24.782  20.820  17.306  0.00  0.00    -0.355 N 
ATOM     14  C   UNK d   0     -25.261  21.686  15.281  0.00  0.00    -0.022 A 
ATOM     15  C   UNK d   0     -25.194  19.832  16.488  0.00  0.00     0.042 A 
ATOM     16  H   UNK d   0     -24.495  20.720  18.376  0.00  0.00     0.166 HD
ATOM     17  C   UNK d   0     -25.351  18.453  16.730  0.00  0.00     0.062 C 
ATOM     18  C   UNK d   0     -25.503  20.337  15.210  0.00  0.00    -0.013 A 
ATOM     19  C   UNK d   0     -24.505  17.589  17.378  0.00  0.00     0.067 A 
ATOM     20  N   UNK d   0     -23.486  18.130  18.049  0.00  0.00    -0.248 NA
ATOM     21  C   UNK d   0     -24.402  16.147  17.532  0.00  0.00    -0.011 A 
ATOM     22  C   UNK d   0     -22.722  17.147  18.630  0.00  0.00     0.066 A 
ATOM     23  C   UNK d   0     -21.645  17.574  19.393  0.00  0.00     0.062 C 
ATOM     24  C   UNK d   0     -23.354  15.895  18.262  0.00  0.00    -0.020 A 
ATOM     25  C   UNK d   0     -21.291  18.892  19.721  0.00  0.00     0.041 A 
ATOM     26  N   UNK d   0     -21.306  20.020  19.002  0.00  0.00    -0.355 N 
ATOM     27  C   UNK d   0     -20.844  19.164  21.032  0.00  0.00    -0.022 A 
ATOM     28  C   UNK d   0     -20.888  21.005  19.812  0.00  0.00     0.042 A 
ATOM     29  H   UNK d   0     -21.585  20.117  17.923  0.00  0.00     0.166 HD
ATOM     30  C   UNK d   0     -20.718  22.379  19.582  0.00  0.00     0.062 C 
ATOM     31  C   UNK d   0     -20.588  20.499  21.099  0.00  0.00    -0.013 A 
ATOM     32  C   UNK d   0     -21.533  23.232  18.854  0.00  0.00     0.066 A 
BRANCH   8  33
ATOM     33  C   UNK d   0     -22.987  26.234  17.308  0.00  0.00     0.151 C 
BRANCH  33  34
ATOM     34  C   UNK d   0     -22.829  26.342  15.847  0.00  0.00     0.143 C 
ATOM     35  O   UNK d   0     -23.744  26.784  15.138  0.00  0.00    -0.650 OA
BRANCH  34  36
ATOM     36  O   UNK d   0     -21.647  25.945  15.264  0.00  0.00    -0.776 OA
ATOM     37  H   UNK d   0     -21.294  26.397  14.410  0.00  0.00     0.167 HD
ENDBRANCH  34  36
ENDBRANCH  33  34
ENDBRANCH   8  33
BRANCH  31  38
ATOM     38  C   UNK d   0     -20.099  21.254  22.313  0.00  0.00     0.151 C 
BRANCH  38  39
ATOM     39  C   UNK d   0     -18.667  21.461  22.307  0.00  0.00     0.143 C 
ATOM     40  O   UNK d   0     -18.082  22.089  23.207  0.00  0.00    -0.650 OA
BRANCH  39  41
ATOM     41  O   UNK d   0     -17.903  20.943  21.262  0.00  0.00    -0.776 OA
ATOM     42  H   UNK d   0     -16.926  20.716  21.472  0.00  0.00     0.167 HD
ENDBRANCH  39  41
ENDBRANCH  38  39
ENDBRANCH  31  38
BRANCH  27  43
ATOM     43  C   UNK d   0     -20.656  18.223  22.196  0.00  0.00     0.052 C 
BRANCH  43  44
ATOM     44  C   UNK d   0     -19.407  17.407  22.099  0.00  0.00     0.115 C 
BRANCH  44  45
ATOM     45  C   UNK d   0     -18.433  18.008  23.046  0.00  0.00     0.139 C 
ATOM     46  O   UNK d   0     -18.779  18.143  24.245  0.00  0.00    -0.650 OA
BRANCH  45  47
ATOM     47  O   UNK d   0     -17.173  18.415  22.663  0.00  0.00    -0.776 OA
ATOM     48  H   UNK d   0     -17.005  19.264  22.098  0.00  0.00     0.167 HD
ENDBRANCH  45  47
ENDBRANCH  44  45
ENDBRANCH  43  44
ENDBRANCH  27  43
BRANCH  24  49
ATOM     49  C   UNK d   0     -22.898  14.564  18.697  0.00  0.00     0.052 C 
BRANCH  49  50
ATOM     50  C   UNK d   0     -23.161  14.375  20.169  0.00  0.00     0.115 C 
BRANCH  50  51
ATOM     51  C   UNK d   0     -24.287  13.528  20.540  0.00  0.00     0.139 C 
ATOM     52  O   UNK d   0     -25.176  13.190  19.724  0.00  0.00    -0.650 OA
BRANCH  51  53
ATOM     53  O   UNK d   0     -24.400  13.069  21.843  0.00  0.00    -0.776 OA
ATOM     54  H   UNK d   0     -23.763  12.357  22.153  0.00  0.00     0.167 HD
ENDBRANCH  51  53
ENDBRANCH  50  51
ENDBRANCH  49  50
ENDBRANCH  24  49
BRANCH  21  55
ATOM     55  C   UNK d   0     -25.363  15.173  16.937  0.00  0.00     0.151 C 
BRANCH  55  56
ATOM     56  C   UNK d   0     -25.482  15.334  15.480  0.00  0.00     0.143 C 
ATOM     57  O   UNK d   0     -26.579  15.461  14.902  0.00  0.00    -0.650 OA
BRANCH  56  58
ATOM     58  O   UNK d   0     -24.306  15.343  14.730  0.00  0.00    -0.776 OA
ATOM     59  H   UNK d   0     -24.302  16.005  13.934  0.00  0.00     0.167 HD
ENDBRANCH  56  58
ENDBRANCH  55  56
ENDBRANCH  21  55
BRANCH  18  60
ATOM     60  C   UNK d   0     -25.993  19.610  13.983  0.00  0.00     0.151 C 
BRANCH  60  61
ATOM     61  C   UNK d   0     -27.402  19.277  14.247  0.00  0.00     0.143 C 
ATOM     62  O   UNK d   0     -28.259  20.014  14.734  0.00  0.00    -0.650 OA
BRANCH  61  63
ATOM     63  O   UNK d   0     -27.787  17.962  13.893  0.00  0.00    -0.776 OA
ATOM     64  H   UNK d   0     -27.151  17.190  13.995  0.00  0.00     0.167 HD
ENDBRANCH  61  63
ENDBRANCH  60  61
ENDBRANCH  18  60
BRANCH  14  65
ATOM     65  C   UNK d   0     -25.570  22.611  14.138  0.00  0.00     0.052 C 
BRANCH  65  66
ATOM     66  C   UNK d   0     -24.533  22.584  13.072  0.00  0.00     0.115 C 
BRANCH  66  67
ATOM     67  C   UNK d   0     -23.153  22.783  13.415  0.00  0.00     0.139 C 
ATOM     68  O   UNK d   0     -22.517  21.820  13.982  0.00  0.00    -0.650 OA
BRANCH  67  69
ATOM     69  O   UNK d   0     -22.379  23.924  13.210  0.00  0.00    -0.776 OA
ATOM     70  H   UNK d   0     -22.901  24.790  13.012  0.00  0.00     0.167 HD
ENDBRANCH  67  69
ENDBRANCH  66  67
ENDBRANCH  65  66
ENDBRANCH  14  65
ENDBRANCH   6   7
ENDBRANCH   5   6
ENDBRANCH   2   5
TORSDOF 28
ENDMDL
MODEL 16
REMARK VINA RESULT:      -6.9      6.646     11.280
REMARK  28 active torsions:
REMARK  status: ('A' for Active; 'I' for Inactive)
REMARK    1  A    between atoms: C_2  and  O_3 
REMARK    2  A    between atoms: C_2  and  C_4 
REMARK    3  A    between atoms: C_4  and  C_5 
REMARK    4  A    between atoms: C_5  and  C_6 
REMARK    5  A    between atoms: C_7  and  C_8 
REMARK    6  A    between atoms: C_8  and  C_9 
REMARK    7  A    between atoms: C_9  and  O_11 
REMARK    8  A    between atoms: C_28  and  C_29 
REMARK    9  A    between atoms: C_29  and  C_30 
REMARK   10  A    between atoms: C_30  and  O_32 
REMARK   11  A    between atoms: C_33  and  C_34 
REMARK   12  A    between atoms: C_34  and  C_35 
REMARK   13  A    between atoms: C_35  and  C_36 
REMARK   14  A    between atoms: C_36  and  O_38 
REMARK   15  A    between atoms: C_39  and  C_40 
REMARK   16  A    between atoms: C_40  and  C_41 
REMARK   17  A    between atoms: C_41  and  C_42 
REMARK   18  A    between atoms: C_42  and  O_44 
REMARK   19  A    between atoms: C_45  and  C_46 
REMARK   20  A    between atoms: C_46  and  C_47 
REMARK   21  A    between atoms: C_47  and  O_49 
REMARK   22  A    between atoms: C_50  and  C_51 
REMARK   23  A    between atoms: C_51  and  C_52 
REMARK   24  A    between atoms: C_52  and  O_54 
REMARK   25  A    between atoms: C_55  and  C_56 
REMARK   26  A    between atoms: C_56  and  C_57 
REMARK   27  A    between atoms: C_57  and  C_58 
REMARK   28  A    between atoms: C_58  and  O_60 
ROOT
ATOM      1  O   UNK d   0     -18.011  18.144  20.795  0.00  0.00    -0.650 OA
ATOM      2  C   UNK d   0     -18.173  18.693  21.907  0.00  0.00     0.139 C 
ENDROOT
BRANCH   2   3
ATOM      3  O   UNK d   0     -17.172  18.621  22.846  0.00  0.00    -0.776 OA
ATOM      4  H   UNK d   0     -16.862  17.721  23.219  0.00  0.00     0.167 HD
ENDBRANCH   2   3
BRANCH   2   5
ATOM      5  C   UNK d   0     -19.441  19.416  22.207  0.00  0.00     0.115 C 
BRANCH   5   6
ATOM      6  C   UNK d   0     -20.534  18.434  22.531  0.00  0.00     0.052 C 
BRANCH   6   7
ATOM      7  C   UNK d   0     -21.316  18.011  21.310  0.00  0.00    -0.020 A 
ATOM      8  C   UNK d   0     -21.695  16.802  20.984  0.00  0.00    -0.011 A 
ATOM      9  C   UNK d   0     -22.412  16.886  19.722  0.00  0.00     0.067 A 
ATOM     10  C   UNK d   0     -23.071  15.986  18.871  0.00  0.00     0.062 C 
ATOM     11  N   UNK d   0     -22.417  18.183  19.349  0.00  0.00    -0.248 NA
ATOM     12  C   UNK d   0     -23.951  16.295  17.828  0.00  0.00     0.041 A 
ATOM     13  N   UNK d   0     -23.896  17.244  16.874  0.00  0.00    -0.355 N 
ATOM     14  C   UNK d   0     -25.154  15.574  17.716  0.00  0.00    -0.022 A 
ATOM     15  C   UNK d   0     -25.036  17.148  16.164  0.00  0.00     0.042 A 
ATOM     16  H   UNK d   0     -23.059  17.954  16.693  0.00  0.00     0.166 HD
ATOM     17  C   UNK d   0     -25.489  17.895  15.058  0.00  0.00     0.062 C 
ATOM     18  C   UNK d   0     -25.850  16.113  16.662  0.00  0.00    -0.013 A 
ATOM     19  C   UNK d   0     -25.461  19.252  14.864  0.00  0.00     0.067 A 
ATOM     20  N   UNK d   0     -24.741  19.972  15.729  0.00  0.00    -0.248 NA
ATOM     21  C   UNK d   0     -26.051  20.185  13.919  0.00  0.00    -0.011 A 
ATOM     22  C   UNK d   0     -24.820  21.307  15.418  0.00  0.00     0.066 A 
ATOM     23  C   UNK d   0     -24.085  22.170  16.218  0.00  0.00     0.062 C 
ATOM     24  C   UNK d   0     -25.676  21.386  14.251  0.00  0.00    -0.020 A 
ATOM     25  C   UNK d   0     -23.196  21.838  17.252  0.00  0.00     0.041 A 
ATOM     26  N   UNK d   0     -23.258  20.905  18.210  0.00  0.00    -0.355 N 
ATOM     27  C   UNK d   0     -21.987  22.559  17.361  0.00  0.00    -0.022 A 
ATOM     28  C   UNK d   0     -22.126  21.004  18.925  0.00  0.00     0.042 A 
ATOM     29  H   UNK d   0     -24.104  20.199  18.397  0.00  0.00     0.166 HD
ATOM     30  C   UNK d   0     -21.667  20.275  20.033  0.00  0.00     0.062 C 
ATOM     31  C   UNK d   0     -21.304  22.038  18.417  0.00  0.00    -0.013 A 
ATOM     32  C   UNK d   0     -21.774  18.912  20.263  0.00  0.00     0.066 A 
BRANCH   8  33
ATOM     33  C   UNK d   0     -21.446  15.562  21.742  0.00  0.00     0.151 C 
BRANCH  33  34
ATOM     34  C   UNK d   0     -22.675  14.991  22.321  0.00  0.00     0.143 C 
ATOM     35  O   UNK d   0     -22.968  13.800  22.143  0.00  0.00    -0.650 OA
BRANCH  34  36
ATOM     36  O   UNK d   0     -23.507  15.793  23.066  0.00  0.00    -0.776 OA
ATOM     37  H   UNK d   0     -23.766  16.737  22.747  0.00  0.00     0.167 HD
ENDBRANCH  34  36
ENDBRANCH  33  34
ENDBRANCH   8  33
BRANCH  31  38
ATOM     38  C   UNK d   0     -19.946  22.483  18.907  0.00  0.00     0.151 C 
BRANCH  38  39
ATOM     39  C   UNK d   0     -18.867  21.666  18.392  0.00  0.00     0.143 C 
ATOM     40  O   UNK d   0     -18.160  20.957  19.130  0.00  0.00    -0.650 OA
BRANCH  39  41
ATOM     41  O   UNK d   0     -18.601  21.664  17.024  0.00  0.00    -0.776 OA
ATOM     42  H   UNK d   0     -18.387  20.757  16.597  0.00  0.00     0.167 HD
ENDBRANCH  39  41
ENDBRANCH  38  39
ENDBRANCH  31  38
BRANCH  27  43
ATOM     43  C   UNK d   0     -21.473  23.701  16.520  0.00  0.00     0.052 C 
BRANCH  43  44
ATOM     44  C   UNK d   0     -20.996  23.271  15.171  0.00  0.00     0.115 C 
BRANCH  44  45
ATOM     45  C   UNK d   0     -22.041  23.686  14.199  0.00  0.00     0.139 C 
ATOM     46  O   UNK d   0     -22.601  24.796  14.371  0.00  0.00    -0.650 OA
BRANCH  45  47
ATOM     47  O   UNK d   0     -22.412  22.908  13.124  0.00  0.00    -0.776 OA
ATOM     48  H   UNK d   0     -22.524  23.287  12.170  0.00  0.00     0.167 HD
ENDBRANCH  45  47
ENDBRANCH  44  45
ENDBRANCH  43  44
ENDBRANCH  27  43
BRANCH  24  49
ATOM     49  C   UNK d   0     -26.014  22.630  13.539  0.00  0.00     0.052 C 
BRANCH  49  50
ATOM     50  C   UNK d   0     -27.236  23.268  14.148  0.00  0.00     0.115 C 
BRANCH  50  51
ATOM     51  C   UNK d   0     -28.335  23.592  13.248  0.00  0.00     0.139 C 
ATOM     52  O   UNK d   0     -29.188  24.472  13.512  0.00  0.00    -0.650 OA
BRANCH  51  53
ATOM     53  O   UNK d   0     -28.464  22.909  12.048  0.00  0.00    -0.776 OA
ATOM     54  H   UNK d   0     -28.447  23.440  11.195  0.00  0.00     0.167 HD
ENDBRANCH  51  53
ENDBRANCH  50  51
ENDBRANCH  49  50
ENDBRANCH  24  49
BRANCH  21  55
ATOM     55  C   UNK d   0     -26.926  19.778  12.779  0.00  0.00     0.151 C 
BRANCH  55  56
ATOM     56  C   UNK d   0     -28.277  19.407  13.227  0.00  0.00     0.143 C 
ATOM     57  O   UNK d   0     -29.132  20.250  13.562  0.00  0.00    -0.650 OA
BRANCH  56  58
ATOM     58  O   UNK d   0     -28.597  18.051  13.271  0.00  0.00    -0.776 OA
ATOM     59  H   UNK d   0     -27.835  17.434  13.606  0.00  0.00     0.167 HD
ENDBRANCH  56  58
ENDBRANCH  55  56
ENDBRANCH  21  55
BRANCH  18  60
ATOM     60  C   UNK d   0     -27.205  15.645  16.193  0.00  0.00     0.151 C 
BRANCH  60  61
ATOM     61  C   UNK d   0     -28.152  16.706  16.569  0.00  0.00     0.143 C 
ATOM     62  O   UNK d   0     -29.043  17.188  15.870  0.00  0.00    -0.650 OA
BRANCH  61  63
ATOM     63  O   UNK d   0     -28.000  17.210  17.884  0.00  0.00    -0.776 OA
ATOM     64  H   UNK d   0     -28.449  18.063  18.167  0.00  0.00     0.167 HD
ENDBRANCH  61  63
ENDBRANCH  60  61
ENDBRANCH  18  60
BRANCH  14  65
ATOM     65  C   UNK d   0     -25.645  14.364  18.458  0.00  0.00     0.052 C 
BRANCH  65  66
ATOM     66  C   UNK d   0     -26.601  14.698  19.547  0.00  0.00     0.115 C 
BRANCH  66  67
ATOM     67  C   UNK d   0     -26.106  15.023  20.855  0.00  0.00     0.139 C 
ATOM     68  O   UNK d   0     -25.752  16.235  21.094  0.00  0.00    -0.650 OA
BRANCH  67  69
ATOM     69  O   UNK d   0     -25.950  14.167  21.945  0.00  0.00    -0.776 OA
ATOM     70  H   UNK d   0     -26.515  14.392  22.776  0.00  0.00     0.167 HD
ENDBRANCH  67  69
ENDBRANCH  66  67
ENDBRANCH  65  66
ENDBRANCH  14  65
ENDBRANCH   6   7
ENDBRANCH   5   6
ENDBRANCH   2   5
TORSDOF 28
ENDMDL
MODEL 17
REMARK VINA RESULT:      -6.8     16.291     22.444
REMARK  28 active torsions:
REMARK  status: ('A' for Active; 'I' for Inactive)
REMARK    1  A    between atoms: C_2  and  O_3 
REMARK    2  A    between atoms: C_2  and  C_4 
REMARK    3  A    between atoms: C_4  and  C_5 
REMARK    4  A    between atoms: C_5  and  C_6 
REMARK    5  A    between atoms: C_7  and  C_8 
REMARK    6  A    between atoms: C_8  and  C_9 
REMARK    7  A    between atoms: C_9  and  O_11 
REMARK    8  A    between atoms: C_28  and  C_29 
REMARK    9  A    between atoms: C_29  and  C_30 
REMARK   10  A    between atoms: C_30  and  O_32 
REMARK   11  A    between atoms: C_33  and  C_34 
REMARK   12  A    between atoms: C_34  and  C_35 
REMARK   13  A    between atoms: C_35  and  C_36 
REMARK   14  A    between atoms: C_36  and  O_38 
REMARK   15  A    between atoms: C_39  and  C_40 
REMARK   16  A    between atoms: C_40  and  C_41 
REMARK   17  A    between atoms: C_41  and  C_42 
REMARK   18  A    between atoms: C_42  and  O_44 
REMARK   19  A    between atoms: C_45  and  C_46 
REMARK   20  A    between atoms: C_46  and  C_47 
REMARK   21  A    between atoms: C_47  and  O_49 
REMARK   22  A    between atoms: C_50  and  C_51 
REMARK   23  A    between atoms: C_51  and  C_52 
REMARK   24  A    between atoms: C_52  and  O_54 
REMARK   25  A    between atoms: C_55  and  C_56 
REMARK   26  A    between atoms: C_56  and  C_57 
REMARK   27  A    between atoms: C_57  and  C_58 
REMARK   28  A    between atoms: C_58  and  O_60 
ROOT
ATOM      1  O   UNK d   0     -27.583  23.331  -4.459  0.00  0.00    -0.650 OA
ATOM      2  C   UNK d   0     -26.611  23.282  -3.673  0.00  0.00     0.139 C 
ENDROOT
BRANCH   2   3
ATOM      3  O   UNK d   0     -25.576  22.416  -3.936  0.00  0.00    -0.776 OA
ATOM      4  H   UNK d   0     -24.610  22.747  -3.982  0.00  0.00     0.167 HD
ENDBRANCH   2   3
BRANCH   2   5
ATOM      5  C   UNK d   0     -26.580  24.154  -2.465  0.00  0.00     0.115 C 
BRANCH   5   6
ATOM      6  C   UNK d   0     -27.964  24.298  -1.895  0.00  0.00     0.052 C 
BRANCH   6   7
ATOM      7  C   UNK d   0     -28.324  23.174  -0.952  0.00  0.00    -0.020 A 
ATOM      8  C   UNK d   0     -27.891  22.987   0.268  0.00  0.00    -0.011 A 
ATOM      9  C   UNK d   0     -28.505  21.772   0.777  0.00  0.00     0.067 A 
ATOM     10  C   UNK d   0     -28.479  21.051   1.981  0.00  0.00     0.062 C 
ATOM     11  N   UNK d   0     -29.293  21.281  -0.203  0.00  0.00    -0.248 NA
ATOM     12  C   UNK d   0     -29.361  20.043   2.385  0.00  0.00     0.041 A 
ATOM     13  N   UNK d   0     -29.888  19.003   1.710  0.00  0.00    -0.355 N 
ATOM     14  C   UNK d   0     -29.879  20.076   3.692  0.00  0.00    -0.022 A 
ATOM     15  C   UNK d   0     -30.733  18.380   2.553  0.00  0.00     0.042 A 
ATOM     16  H   UNK d   0     -29.652  18.704   0.665  0.00  0.00     0.166 HD
ATOM     17  C   UNK d   0     -31.540  17.241   2.361  0.00  0.00     0.062 C 
ATOM     18  C   UNK d   0     -30.754  19.024   3.805  0.00  0.00    -0.013 A 
ATOM     19  C   UNK d   0     -32.340  16.921   1.294  0.00  0.00     0.067 A 
ATOM     20  N   UNK d   0     -32.208  17.667   0.194  0.00  0.00    -0.248 NA
ATOM     21  C   UNK d   0     -33.370  15.933   1.020  0.00  0.00    -0.011 A 
ATOM     22  C   UNK d   0     -33.079  17.240  -0.778  0.00  0.00     0.066 A 
ATOM     23  C   UNK d   0     -33.022  17.908  -1.993  0.00  0.00     0.062 C 
ATOM     24  C   UNK d   0     -33.802  16.128  -0.193  0.00  0.00    -0.020 A 
ATOM     25  C   UNK d   0     -32.119  18.909  -2.383  0.00  0.00     0.041 A 
ATOM     26  N   UNK d   0     -31.607  19.951  -1.717  0.00  0.00    -0.355 N 
ATOM     27  C   UNK d   0     -31.596  18.873  -3.694  0.00  0.00    -0.022 A 
ATOM     28  C   UNK d   0     -30.771  20.579  -2.558  0.00  0.00     0.042 A 
ATOM     29  H   UNK d   0     -31.853  20.256  -0.670  0.00  0.00     0.166 HD
ATOM     30  C   UNK d   0     -29.969  21.718  -2.384  0.00  0.00     0.062 C 
ATOM     31  C   UNK d   0     -30.742  19.926  -3.813  0.00  0.00    -0.013 A 
ATOM     32  C   UNK d   0     -29.229  22.080  -1.269  0.00  0.00     0.066 A 
BRANCH   8  33
ATOM     33  C   UNK d   0     -26.944  23.838   1.012  0.00  0.00     0.151 C 
BRANCH  33  34
ATOM     34  C   UNK d   0     -27.618  24.769   1.936  0.00  0.00     0.143 C 
ATOM     35  O   UNK d   0     -28.146  25.809   1.518  0.00  0.00    -0.650 OA
BRANCH  34  36
ATOM     36  O   UNK d   0     -27.659  24.475   3.279  0.00  0.00    -0.776 OA
ATOM     37  H   UNK d   0     -28.536  24.539   3.813  0.00  0.00     0.167 HD
ENDBRANCH  34  36
ENDBRANCH  33  34
ENDBRANCH   8  33
BRANCH  31  38
ATOM     38  C   UNK d   0     -29.934  20.284  -5.039  0.00  0.00     0.151 C 
BRANCH  38  39
ATOM     39  C   UNK d   0     -28.646  19.626  -5.075  0.00  0.00     0.143 C 
ATOM     40  O   UNK d   0     -28.531  18.388  -5.106  0.00  0.00    -0.650 OA
BRANCH  39  41
ATOM     41  O   UNK d   0     -27.482  20.395  -5.077  0.00  0.00    -0.776 OA
ATOM     42  H   UNK d   0     -27.383  21.083  -4.325  0.00  0.00     0.167 HD
ENDBRANCH  39  41
ENDBRANCH  38  39
ENDBRANCH  31  38
BRANCH  27  43
ATOM     43  C   UNK d   0     -31.875  17.898  -4.811  0.00  0.00     0.052 C 
BRANCH  43  44
ATOM     44  C   UNK d   0     -32.834  18.424  -5.828  0.00  0.00     0.115 C 
BRANCH  44  45
ATOM     45  C   UNK d   0     -34.137  17.758  -5.568  0.00  0.00     0.139 C 
ATOM     46  O   UNK d   0     -34.315  16.604  -6.033  0.00  0.00    -0.650 OA
BRANCH  45  47
ATOM     47  O   UNK d   0     -35.146  18.348  -4.839  0.00  0.00    -0.776 OA
ATOM     48  H   UNK d   0     -36.011  18.710  -5.270  0.00  0.00     0.167 HD
ENDBRANCH  45  47
ENDBRANCH  44  45
ENDBRANCH  43  44
ENDBRANCH  27  43
BRANCH  24  49
ATOM     49  C   UNK d   0     -34.821  15.327  -0.891  0.00  0.00     0.052 C 
BRANCH  49  50
ATOM     50  C   UNK d   0     -36.041  16.165  -1.178  0.00  0.00     0.115 C 
BRANCH  50  51
ATOM     51  C   UNK d   0     -36.814  15.828  -2.366  0.00  0.00     0.139 C 
ATOM     52  O   UNK d   0     -36.635  16.391  -3.472  0.00  0.00    -0.650 OA
BRANCH  51  53
ATOM     53  O   UNK d   0     -37.794  14.850  -2.292  0.00  0.00    -0.776 OA
ATOM     54  H   UNK d   0     -37.555  13.968  -1.874  0.00  0.00     0.167 HD
ENDBRANCH  51  53
ENDBRANCH  50  51
ENDBRANCH  49  50
ENDBRANCH  24  49
BRANCH  21  55
ATOM     55  C   UNK d   0     -33.813  14.895   1.997  0.00  0.00     0.151 C 
BRANCH  55  56
ATOM     56  C   UNK d   0     -33.049  13.646   1.858  0.00  0.00     0.143 C 
ATOM     57  O   UNK d   0     -31.846  13.552   2.171  0.00  0.00    -0.650 OA
BRANCH  56  58
ATOM     58  O   UNK d   0     -33.715  12.530   1.355  0.00  0.00    -0.776 OA
ATOM     59  H   UNK d   0     -33.316  12.141   0.482  0.00  0.00     0.167 HD
ENDBRANCH  56  58
ENDBRANCH  55  56
ENDBRANCH  21  55
BRANCH  18  60
ATOM     60  C   UNK d   0     -31.546  18.688   5.045  0.00  0.00     0.151 C 
BRANCH  60  61
ATOM     61  C   UNK d   0     -30.773  17.653   5.749  0.00  0.00     0.143 C 
ATOM     62  O   UNK d   0     -29.716  17.804   6.362  0.00  0.00    -0.650 OA
BRANCH  61  63
ATOM     63  O   UNK d   0     -31.327  16.351   5.702  0.00  0.00    -0.776 OA
ATOM     64  H   UNK d   0     -31.211  15.767   4.892  0.00  0.00     0.167 HD
ENDBRANCH  61  63
ENDBRANCH  60  61
ENDBRANCH  18  60
BRANCH  14  65
ATOM     65  C   UNK d   0     -29.539  20.957   4.860  0.00  0.00     0.052 C 
BRANCH  65  66
ATOM     66  C   UNK d   0     -28.230  20.621   5.480  0.00  0.00     0.115 C 
BRANCH  66  67
ATOM     67  C   UNK d   0     -27.066  21.395   5.150  0.00  0.00     0.139 C 
ATOM     68  O   UNK d   0     -27.020  22.625   5.524  0.00  0.00    -0.650 OA
BRANCH  67  69
ATOM     69  O   UNK d   0     -25.935  20.978   4.449  0.00  0.00    -0.776 OA
ATOM     70  H   UNK d   0     -26.097  20.274   3.715  0.00  0.00     0.167 HD
ENDBRANCH  67  69
ENDBRANCH  66  67
ENDBRANCH  65  66
ENDBRANCH  14  65
ENDBRANCH   6   7
ENDBRANCH   5   6
ENDBRANCH   2   5
TORSDOF 28
ENDMDL
MODEL 18
REMARK VINA RESULT:      -6.8      2.691     10.086
REMARK  28 active torsions:
REMARK  status: ('A' for Active; 'I' for Inactive)
REMARK    1  A    between atoms: C_2  and  O_3 
REMARK    2  A    between atoms: C_2  and  C_4 
REMARK    3  A    between atoms: C_4  and  C_5 
REMARK    4  A    between atoms: C_5  and  C_6 
REMARK    5  A    between atoms: C_7  and  C_8 
REMARK    6  A    between atoms: C_8  and  C_9 
REMARK    7  A    between atoms: C_9  and  O_11 
REMARK    8  A    between atoms: C_28  and  C_29 
REMARK    9  A    between atoms: C_29  and  C_30 
REMARK   10  A    between atoms: C_30  and  O_32 
REMARK   11  A    between atoms: C_33  and  C_34 
REMARK   12  A    between atoms: C_34  and  C_35 
REMARK   13  A    between atoms: C_35  and  C_36 
REMARK   14  A    between atoms: C_36  and  O_38 
REMARK   15  A    between atoms: C_39  and  C_40 
REMARK   16  A    between atoms: C_40  and  C_41 
REMARK   17  A    between atoms: C_41  and  C_42 
REMARK   18  A    between atoms: C_42  and  O_44 
REMARK   19  A    between atoms: C_45  and  C_46 
REMARK   20  A    between atoms: C_46  and  C_47 
REMARK   21  A    between atoms: C_47  and  O_49 
REMARK   22  A    between atoms: C_50  and  C_51 
REMARK   23  A    between atoms: C_51  and  C_52 
REMARK   24  A    between atoms: C_52  and  O_54 
REMARK   25  A    between atoms: C_55  and  C_56 
REMARK   26  A    between atoms: C_56  and  C_57 
REMARK   27  A    between atoms: C_57  and  C_58 
REMARK   28  A    between atoms: C_58  and  O_60 
ROOT
ATOM      1  O   UNK d   0     -24.339  31.023  17.164  0.00  0.00    -0.650 OA
ATOM      2  C   UNK d   0     -24.489  31.279  15.949  0.00  0.00     0.139 C 
ENDROOT
BRANCH   2   3
ATOM      3  O   UNK d   0     -23.786  32.317  15.387  0.00  0.00    -0.776 OA
ATOM      4  H   UNK d   0     -23.389  33.060  15.966  0.00  0.00     0.167 HD
ENDBRANCH   2   3
BRANCH   2   5
ATOM      5  C   UNK d   0     -25.424  30.464  15.122  0.00  0.00     0.115 C 
BRANCH   5   6
ATOM      6  C   UNK d   0     -24.663  29.402  14.375  0.00  0.00     0.052 C 
BRANCH   6   7
ATOM      7  C   UNK d   0     -24.849  28.027  14.970  0.00  0.00    -0.020 A 
ATOM      8  C   UNK d   0     -25.825  27.185  14.745  0.00  0.00    -0.011 A 
ATOM      9  C   UNK d   0     -25.582  25.997  15.546  0.00  0.00     0.067 A 
ATOM     10  C   UNK d   0     -26.215  24.760  15.741  0.00  0.00     0.062 C 
ATOM     11  N   UNK d   0     -24.439  26.204  16.233  0.00  0.00    -0.248 NA
ATOM     12  C   UNK d   0     -25.679  23.620  16.349  0.00  0.00     0.041 A 
ATOM     13  N   UNK d   0     -24.934  23.476  17.462  0.00  0.00    -0.355 N 
ATOM     14  C   UNK d   0     -25.856  22.370  15.728  0.00  0.00    -0.022 A 
ATOM     15  C   UNK d   0     -24.627  22.168  17.558  0.00  0.00     0.042 A 
ATOM     16  H   UNK d   0     -24.647  24.279  18.175  0.00  0.00     0.166 HD
ATOM     17  C   UNK d   0     -23.874  21.476  18.527  0.00  0.00     0.062 C 
ATOM     18  C   UNK d   0     -25.187  21.443  16.488  0.00  0.00    -0.013 A 
ATOM     19  C   UNK d   0     -22.672  21.818  19.092  0.00  0.00     0.067 A 
ATOM     20  N   UNK d   0     -22.226  23.055  18.860  0.00  0.00    -0.248 NA
ATOM     21  C   UNK d   0     -21.678  21.152  19.917  0.00  0.00    -0.011 A 
ATOM     22  C   UNK d   0     -21.012  23.246  19.473  0.00  0.00     0.066 A 
ATOM     23  C   UNK d   0     -20.448  24.507  19.345  0.00  0.00     0.062 C 
ATOM     24  C   UNK d   0     -20.707  21.992  20.133  0.00  0.00    -0.020 A 
ATOM     25  C   UNK d   0     -21.009  25.643  18.741  0.00  0.00     0.041 A 
ATOM     26  N   UNK d   0     -21.737  25.788  17.627  0.00  0.00    -0.355 N 
ATOM     27  C   UNK d   0     -20.835  26.896  19.368  0.00  0.00    -0.022 A 
ATOM     28  C   UNK d   0     -22.037  27.093  17.524  0.00  0.00     0.042 A 
ATOM     29  H   UNK d   0     -22.015  24.982  16.906  0.00  0.00     0.166 HD
ATOM     30  C   UNK d   0     -22.777  27.796  16.561  0.00  0.00     0.062 C 
ATOM     31  C   UNK d   0     -21.483  27.819  18.605  0.00  0.00    -0.013 A 
ATOM     32  C   UNK d   0     -23.948  27.407  15.931  0.00  0.00     0.066 A 
BRANCH   8  33
ATOM     33  C   UNK d   0     -26.977  27.386  13.848  0.00  0.00     0.151 C 
BRANCH  33  34
ATOM     34  C   UNK d   0     -26.864  26.621  12.593  0.00  0.00     0.143 C 
ATOM     35  O   UNK d   0     -26.268  27.090  11.613  0.00  0.00    -0.650 OA
BRANCH  34  36
ATOM     36  O   UNK d   0     -27.431  25.370  12.511  0.00  0.00    -0.776 OA
ATOM     37  H   UNK d   0     -27.637  24.821  13.357  0.00  0.00     0.167 HD
ENDBRANCH  34  36
ENDBRANCH  33  34
ENDBRANCH   8  33
BRANCH  31  38
ATOM     38  C   UNK d   0     -21.582  29.300  18.890  0.00  0.00     0.151 C 
BRANCH  38  39
ATOM     39  C   UNK d   0     -22.484  29.602  19.980  0.00  0.00     0.143 C 
ATOM     40  O   UNK d   0     -23.645  29.159  20.027  0.00  0.00    -0.650 OA
BRANCH  39  41
ATOM     41  O   UNK d   0     -22.049  30.419  21.024  0.00  0.00    -0.776 OA
ATOM     42  H   UNK d   0     -21.107  30.814  20.939  0.00  0.00     0.167 HD
ENDBRANCH  39  41
ENDBRANCH  38  39
ENDBRANCH  31  38
BRANCH  27  43
ATOM     43  C   UNK d   0     -20.091  27.240  20.634  0.00  0.00     0.052 C 
BRANCH  43  44
ATOM     44  C   UNK d   0     -18.608  27.285  20.454  0.00  0.00     0.115 C 
BRANCH  44  45
ATOM     45  C   UNK d   0     -18.177  28.655  20.837  0.00  0.00     0.139 C 
ATOM     46  O   UNK d   0     -16.968  28.835  21.126  0.00  0.00    -0.650 OA
BRANCH  45  47
ATOM     47  O   UNK d   0     -19.042  29.726  20.881  0.00  0.00    -0.776 OA
ATOM     48  H   UNK d   0     -19.740  29.853  21.632  0.00  0.00     0.167 HD
ENDBRANCH  45  47
ENDBRANCH  44  45
ENDBRANCH  43  44
ENDBRANCH  27  43
BRANCH  24  49
ATOM     49  C   UNK d   0     -19.510  21.743  20.955  0.00  0.00     0.052 C 
BRANCH  49  50
ATOM     50  C   UNK d   0     -19.693  22.318  22.335  0.00  0.00     0.115 C 
BRANCH  50  51
ATOM     51  C   UNK d   0     -18.529  22.326  23.212  0.00  0.00     0.139 C 
ATOM     52  O   UNK d   0     -17.960  21.274  23.589  0.00  0.00    -0.650 OA
BRANCH  51  53
ATOM     53  O   UNK d   0     -18.016  23.533  23.661  0.00  0.00    -0.776 OA
ATOM     54  H   UNK d   0     -17.173  23.878  23.237  0.00  0.00     0.167 HD
ENDBRANCH  51  53
ENDBRANCH  50  51
ENDBRANCH  49  50
ENDBRANCH  24  49
BRANCH  21  55
ATOM     55  C   UNK d   0     -21.805  19.748  20.407  0.00  0.00     0.151 C 
BRANCH  55  56
ATOM     56  C   UNK d   0     -21.095  18.795  19.539  0.00  0.00     0.143 C 
ATOM     57  O   UNK d   0     -19.866  18.601  19.613  0.00  0.00    -0.650 OA
BRANCH  56  58
ATOM     58  O   UNK d   0     -21.846  18.088  18.601  0.00  0.00    -0.776 OA
ATOM     59  H   UNK d   0     -22.196  18.654  17.806  0.00  0.00     0.167 HD
ENDBRANCH  56  58
ENDBRANCH  55  56
ENDBRANCH  21  55
BRANCH  18  60
ATOM     60  C   UNK d   0     -25.108  19.969  16.181  0.00  0.00     0.151 C 
BRANCH  60  61
ATOM     61  C   UNK d   0     -23.763  19.743  15.630  0.00  0.00     0.143 C 
ATOM     62  O   UNK d   0     -23.085  20.538  14.979  0.00  0.00    -0.650 OA
BRANCH  61  63
ATOM     63  O   UNK d   0     -23.211  18.466  15.892  0.00  0.00    -0.776 OA
ATOM     64  H   UNK d   0     -23.696  17.627  15.627  0.00  0.00     0.167 HD
ENDBRANCH  61  63
ENDBRANCH  60  61
ENDBRANCH  18  60
BRANCH  14  65
ATOM     65  C   UNK d   0     -26.682  21.975  14.537  0.00  0.00     0.052 C 
BRANCH  65  66
ATOM     66  C   UNK d   0     -25.861  21.677  13.333  0.00  0.00     0.115 C 
BRANCH  66  67
ATOM     67  C   UNK d   0     -24.853  22.607  12.910  0.00  0.00     0.139 C 
ATOM     68  O   UNK d   0     -25.222  23.770  12.503  0.00  0.00    -0.650 OA
BRANCH  67  69
ATOM     69  O   UNK d   0     -23.472  22.414  12.880  0.00  0.00    -0.776 OA
ATOM     70  H   UNK d   0     -23.070  22.204  11.955  0.00  0.00     0.167 HD
ENDBRANCH  67  69
ENDBRANCH  66  67
ENDBRANCH  65  66
ENDBRANCH  14  65
ENDBRANCH   6   7
ENDBRANCH   5   6
ENDBRANCH   2   5
TORSDOF 28
ENDMDL
MODEL 19
REMARK VINA RESULT:      -6.8     14.462     19.783
REMARK  28 active torsions:
REMARK  status: ('A' for Active; 'I' for Inactive)
REMARK    1  A    between atoms: C_2  and  O_3 
REMARK    2  A    between atoms: C_2  and  C_4 
REMARK    3  A    between atoms: C_4  and  C_5 
REMARK    4  A    between atoms: C_5  and  C_6 
REMARK    5  A    between atoms: C_7  and  C_8 
REMARK    6  A    between atoms: C_8  and  C_9 
REMARK    7  A    between atoms: C_9  and  O_11 
REMARK    8  A    between atoms: C_28  and  C_29 
REMARK    9  A    between atoms: C_29  and  C_30 
REMARK   10  A    between atoms: C_30  and  O_32 
REMARK   11  A    between atoms: C_33  and  C_34 
REMARK   12  A    between atoms: C_34  and  C_35 
REMARK   13  A    between atoms: C_35  and  C_36 
REMARK   14  A    between atoms: C_36  and  O_38 
REMARK   15  A    between atoms: C_39  and  C_40 
REMARK   16  A    between atoms: C_40  and  C_41 
REMARK   17  A    between atoms: C_41  and  C_42 
REMARK   18  A    between atoms: C_42  and  O_44 
REMARK   19  A    between atoms: C_45  and  C_46 
REMARK   20  A    between atoms: C_46  and  C_47 
REMARK   21  A    between atoms: C_47  and  O_49 
REMARK   22  A    between atoms: C_50  and  C_51 
REMARK   23  A    between atoms: C_51  and  C_52 
REMARK   24  A    between atoms: C_52  and  O_54 
REMARK   25  A    between atoms: C_55  and  C_56 
REMARK   26  A    between atoms: C_56  and  C_57 
REMARK   27  A    between atoms: C_57  and  C_58 
REMARK   28  A    between atoms: C_58  and  O_60 
ROOT
ATOM      1  O   UNK d   0     -22.163  24.712   6.146  0.00  0.00    -0.650 OA
ATOM      2  C   UNK d   0     -23.316  24.865   5.685  0.00  0.00     0.139 C 
ENDROOT
BRANCH   2   3
ATOM      3  O   UNK d   0     -23.928  26.091   5.796  0.00  0.00    -0.776 OA
ATOM      4  H   UNK d   0     -24.565  26.294   6.569  0.00  0.00     0.167 HD
ENDBRANCH   2   3
BRANCH   2   5
ATOM      5  C   UNK d   0     -24.015  23.727   5.024  0.00  0.00     0.115 C 
BRANCH   5   6
ATOM      6  C   UNK d   0     -25.486  24.020   4.909  0.00  0.00     0.052 C 
BRANCH   6   7
ATOM      7  C   UNK d   0     -25.988  23.923   3.488  0.00  0.00    -0.020 A 
ATOM      8  C   UNK d   0     -25.714  24.722   2.489  0.00  0.00    -0.011 A 
ATOM      9  C   UNK d   0     -26.432  24.236   1.322  0.00  0.00     0.067 A 
ATOM     10  C   UNK d   0     -26.547  24.614  -0.025  0.00  0.00     0.062 C 
ATOM     11  N   UNK d   0     -27.123  23.141   1.703  0.00  0.00    -0.248 NA
ATOM     12  C   UNK d   0     -27.073  23.854  -1.076  0.00  0.00     0.041 A 
ATOM     13  N   UNK d   0     -28.168  23.073  -1.144  0.00  0.00    -0.355 N 
ATOM     14  C   UNK d   0     -26.370  23.798  -2.293  0.00  0.00    -0.022 A 
ATOM     15  C   UNK d   0     -28.174  22.516  -2.370  0.00  0.00     0.042 A 
ATOM     16  H   UNK d   0     -28.932  22.933  -0.348  0.00  0.00     0.166 HD
ATOM     17  C   UNK d   0     -29.088  21.624  -2.963  0.00  0.00     0.062 C 
ATOM     18  C   UNK d   0     -27.062  22.947  -3.119  0.00  0.00    -0.013 A 
ATOM     19  C   UNK d   0     -29.665  20.500  -2.431  0.00  0.00     0.067 A 
ATOM     20  N   UNK d   0     -29.515  20.307  -1.118  0.00  0.00    -0.248 NA
ATOM     21  C   UNK d   0     -30.436  19.379  -2.942  0.00  0.00    -0.011 A 
ATOM     22  C   UNK d   0     -30.130  19.140  -0.734  0.00  0.00     0.066 A 
ATOM     23  C   UNK d   0     -30.083  18.835   0.618  0.00  0.00     0.062 C 
ATOM     24  C   UNK d   0     -30.701  18.585  -1.945  0.00  0.00    -0.020 A 
ATOM     25  C   UNK d   0     -29.561  19.618   1.660  0.00  0.00     0.041 A 
ATOM     26  N   UNK d   0     -28.465  20.382   1.732  0.00  0.00    -0.355 N 
ATOM     27  C   UNK d   0     -30.270  19.677   2.880  0.00  0.00    -0.022 A 
ATOM     28  C   UNK d   0     -28.453  20.932   2.957  0.00  0.00     0.042 A 
ATOM     29  H   UNK d   0     -27.693  20.514   0.935  0.00  0.00     0.166 HD
ATOM     30  C   UNK d   0     -27.545  21.814   3.563  0.00  0.00     0.062 C 
ATOM     31  C   UNK d   0     -29.576  20.507   3.706  0.00  0.00    -0.013 A 
ATOM     32  C   UNK d   0     -26.898  22.900   2.995  0.00  0.00     0.066 A 
BRANCH   8  33
ATOM     33  C   UNK d   0     -24.841  25.910   2.519  0.00  0.00     0.151 C 
BRANCH  33  34
ATOM     34  C   UNK d   0     -25.582  27.155   2.790  0.00  0.00     0.143 C 
ATOM     35  O   UNK d   0     -25.947  27.441   3.939  0.00  0.00    -0.650 OA
BRANCH  34  36
ATOM     36  O   UNK d   0     -25.871  28.009   1.751  0.00  0.00    -0.776 OA
ATOM     37  H   UNK d   0     -25.750  29.026   1.846  0.00  0.00     0.167 HD
ENDBRANCH  34  36
ENDBRANCH  33  34
ENDBRANCH   8  33
BRANCH  31  38
ATOM     38  C   UNK d   0     -29.960  20.886   5.117  0.00  0.00     0.151 C 
BRANCH  38  39
ATOM     39  C   UNK d   0     -29.478  19.942   6.103  0.00  0.00     0.143 C 
ATOM     40  O   UNK d   0     -29.949  19.881   7.252  0.00  0.00    -0.650 OA
BRANCH  39  41
ATOM     41  O   UNK d   0     -28.449  19.063   5.766  0.00  0.00    -0.776 OA
ATOM     42  H   UNK d   0     -28.580  18.504   4.917  0.00  0.00     0.167 HD
ENDBRANCH  39  41
ENDBRANCH  38  39
ENDBRANCH  31  38
BRANCH  27  43
ATOM     43  C   UNK d   0     -31.551  18.988   3.279  0.00  0.00     0.052 C 
BRANCH  43  44
ATOM     44  C   UNK d   0     -31.350  17.571   3.708  0.00  0.00     0.115 C 
BRANCH  44  45
ATOM     45  C   UNK d   0     -31.834  17.480   5.110  0.00  0.00     0.139 C 
ATOM     46  O   UNK d   0     -32.589  18.388   5.536  0.00  0.00    -0.650 OA
BRANCH  45  47
ATOM     47  O   UNK d   0     -31.493  16.443   5.952  0.00  0.00    -0.776 OA
ATOM     48  H   UNK d   0     -31.085  16.594   6.889  0.00  0.00     0.167 HD
ENDBRANCH  45  47
ENDBRANCH  44  45
ENDBRANCH  43  44
ENDBRANCH  27  43
BRANCH  24  49
ATOM     49  C   UNK d   0     -31.495  17.346  -2.009  0.00  0.00     0.052 C 
BRANCH  49  50
ATOM     50  C   UNK d   0     -32.919  17.613  -1.591  0.00  0.00     0.115 C 
BRANCH  50  51
ATOM     51  C   UNK d   0     -33.334  17.115  -0.287  0.00  0.00     0.139 C 
ATOM     52  O   UNK d   0     -34.439  17.407   0.228  0.00  0.00    -0.650 OA
BRANCH  51  53
ATOM     53  O   UNK d   0     -32.486  16.287   0.433  0.00  0.00    -0.776 OA
ATOM     54  H   UNK d   0     -32.126  15.466  -0.020  0.00  0.00     0.167 HD
ENDBRANCH  51  53
ENDBRANCH  50  51
ENDBRANCH  49  50
ENDBRANCH  24  49
BRANCH  21  55
ATOM     55  C   UNK d   0     -30.831  19.220  -4.373  0.00  0.00     0.151 C 
BRANCH  55  56
ATOM     56  C   UNK d   0     -29.663  19.070  -5.254  0.00  0.00     0.143 C 
ATOM     57  O   UNK d   0     -29.353  19.918  -6.114  0.00  0.00    -0.650 OA
BRANCH  56  58
ATOM     58  O   UNK d   0     -28.882  17.925  -5.106  0.00  0.00    -0.776 OA
ATOM     59  H   UNK d   0     -29.262  17.219  -4.451  0.00  0.00     0.167 HD
ENDBRANCH  56  58
ENDBRANCH  55  56
ENDBRANCH  21  55
BRANCH  18  60
ATOM     60  C   UNK d   0     -26.655  22.589  -4.527  0.00  0.00     0.151 C 
BRANCH  60  61
ATOM     61  C   UNK d   0     -27.513  23.392  -5.412  0.00  0.00     0.143 C 
ATOM     62  O   UNK d   0     -27.602  24.620  -5.445  0.00  0.00    -0.650 OA
BRANCH  61  63
ATOM     63  O   UNK d   0     -28.312  22.648  -6.314  0.00  0.00    -0.776 OA
ATOM     64  H   UNK d   0     -27.981  21.788  -6.712  0.00  0.00     0.167 HD
ENDBRANCH  61  63
ENDBRANCH  60  61
ENDBRANCH  18  60
BRANCH  14  65
ATOM     65  C   UNK d   0     -25.162  24.556  -2.764  0.00  0.00     0.052 C 
BRANCH  65  66
ATOM     66  C   UNK d   0     -23.904  24.114  -2.104  0.00  0.00     0.115 C 
BRANCH  66  67
ATOM     67  C   UNK d   0     -23.413  22.783  -2.327  0.00  0.00     0.139 C 
ATOM     68  O   UNK d   0     -23.154  22.419  -3.533  0.00  0.00    -0.650 OA
BRANCH  67  69
ATOM     69  O   UNK d   0     -23.168  21.793  -1.377  0.00  0.00    -0.776 OA
ATOM     70  H   UNK d   0     -22.374  21.168  -1.575  0.00  0.00     0.167 HD
ENDBRANCH  67  69
ENDBRANCH  66  67
ENDBRANCH  65  66
ENDBRANCH  14  65
ENDBRANCH   6   7
ENDBRANCH   5   6
ENDBRANCH   2   5
TORSDOF 28
ENDMDL
MODEL 20
REMARK VINA RESULT:      -6.7      5.024     10.269
REMARK  28 active torsions:
REMARK  status: ('A' for Active; 'I' for Inactive)
REMARK    1  A    between atoms: C_2  and  O_3 
REMARK    2  A    between atoms: C_2  and  C_4 
REMARK    3  A    between atoms: C_4  and  C_5 
REMARK    4  A    between atoms: C_5  and  C_6 
REMARK    5  A    between atoms: C_7  and  C_8 
REMARK    6  A    between atoms: C_8  and  C_9 
REMARK    7  A    between atoms: C_9  and  O_11 
REMARK    8  A    between atoms: C_28  and  C_29 
REMARK    9  A    between atoms: C_29  and  C_30 
REMARK   10  A    between atoms: C_30  and  O_32 
REMARK   11  A    between atoms: C_33  and  C_34 
REMARK   12  A    between atoms: C_34  and  C_35 
REMARK   13  A    between atoms: C_35  and  C_36 
REMARK   14  A    between atoms: C_36  and  O_38 
REMARK   15  A    between atoms: C_39  and  C_40 
REMARK   16  A    between atoms: C_40  and  C_41 
REMARK   17  A    between atoms: C_41  and  C_42 
REMARK   18  A    between atoms: C_42  and  O_44 
REMARK   19  A    between atoms: C_45  and  C_46 
REMARK   20  A    between atoms: C_46  and  C_47 
REMARK   21  A    between atoms: C_47  and  O_49 
REMARK   22  A    between atoms: C_50  and  C_51 
REMARK   23  A    between atoms: C_51  and  C_52 
REMARK   24  A    between atoms: C_52  and  O_54 
REMARK   25  A    between atoms: C_55  and  C_56 
REMARK   26  A    between atoms: C_56  and  C_57 
REMARK   27  A    between atoms: C_57  and  C_58 
REMARK   28  A    between atoms: C_58  and  O_60 
ROOT
ATOM      1  O   UNK d   0     -18.297  25.851  24.522  0.00  0.00    -0.650 OA
ATOM      2  C   UNK d   0     -18.934  25.291  23.602  0.00  0.00     0.139 C 
ENDROOT
BRANCH   2   3
ATOM      3  O   UNK d   0     -19.315  26.024  22.504  0.00  0.00    -0.776 OA
ATOM      4  H   UNK d   0     -18.651  26.631  22.018  0.00  0.00     0.167 HD
ENDBRANCH   2   3
BRANCH   2   5
ATOM      5  C   UNK d   0     -19.274  23.844  23.701  0.00  0.00     0.115 C 
BRANCH   5   6
ATOM      6  C   UNK d   0     -18.292  23.026  22.908  0.00  0.00     0.052 C 
BRANCH   6   7
ATOM      7  C   UNK d   0     -18.949  21.887  22.165  0.00  0.00    -0.020 A 
ATOM      8  C   UNK d   0     -18.789  20.604  22.368  0.00  0.00    -0.011 A 
ATOM      9  C   UNK d   0     -19.618  19.895  21.407  0.00  0.00     0.067 A 
ATOM     10  C   UNK d   0     -19.908  18.553  21.116  0.00  0.00     0.062 C 
ATOM     11  N   UNK d   0     -20.244  20.825  20.656  0.00  0.00    -0.248 NA
ATOM     12  C   UNK d   0     -20.956  18.065  20.328  0.00  0.00     0.041 A 
ATOM     13  N   UNK d   0     -21.446  18.485  19.146  0.00  0.00    -0.355 N 
ATOM     14  C   UNK d   0     -21.716  16.981  20.802  0.00  0.00    -0.022 A 
ATOM     15  C   UNK d   0     -22.503  17.700  18.862  0.00  0.00     0.042 A 
ATOM     16  H   UNK d   0     -21.041  19.307  18.515  0.00  0.00     0.166 HD
ATOM     17  C   UNK d   0     -23.373  17.706  17.754  0.00  0.00     0.062 C 
ATOM     18  C   UNK d   0     -22.704  16.746  19.878  0.00  0.00    -0.013 A 
ATOM     19  C   UNK d   0     -23.975  18.771  17.135  0.00  0.00     0.067 A 
ATOM     20  N   UNK d   0     -23.549  19.990  17.478  0.00  0.00    -0.248 NA
ATOM     21  C   UNK d   0     -25.030  18.949  16.151  0.00  0.00    -0.011 A 
ATOM     22  C   UNK d   0     -24.250  20.951  16.792  0.00  0.00     0.066 A 
ATOM     23  C   UNK d   0     -23.882  22.267  17.026  0.00  0.00     0.062 C 
ATOM     24  C   UNK d   0     -25.189  20.226  15.958  0.00  0.00    -0.020 A 
ATOM     25  C   UNK d   0     -22.819  22.736  17.812  0.00  0.00     0.041 A 
ATOM     26  N   UNK d   0     -22.340  22.328  18.994  0.00  0.00    -0.355 N 
ATOM     27  C   UNK d   0     -22.053  23.822  17.333  0.00  0.00    -0.022 A 
ATOM     28  C   UNK d   0     -21.292  23.115  19.283  0.00  0.00     0.042 A 
ATOM     29  H   UNK d   0     -22.755  21.509  19.632  0.00  0.00     0.166 HD
ATOM     30  C   UNK d   0     -20.423  23.127  20.386  0.00  0.00     0.062 C 
ATOM     31  C   UNK d   0     -21.084  24.067  18.257  0.00  0.00    -0.013 A 
ATOM     32  C   UNK d   0     -19.885  22.043  21.062  0.00  0.00     0.066 A 
BRANCH   8  33
ATOM     33  C   UNK d   0     -17.923  19.969  23.379  0.00  0.00     0.151 C 
BRANCH  33  34
ATOM     34  C   UNK d   0     -18.685  19.207  24.384  0.00  0.00     0.143 C 
ATOM     35  O   UNK d   0     -18.491  17.993  24.545  0.00  0.00    -0.650 OA
BRANCH  34  36
ATOM     36  O   UNK d   0     -19.625  19.854  25.153  0.00  0.00    -0.776 OA
ATOM     37  H   UNK d   0     -19.368  20.648  25.755  0.00  0.00     0.167 HD
ENDBRANCH  34  36
ENDBRANCH  33  34
ENDBRANCH   8  33
BRANCH  31  38
ATOM     38  C   UNK d   0     -20.016  25.132  18.168  0.00  0.00     0.151 C 
BRANCH  38  39
ATOM     39  C   UNK d   0     -20.466  26.420  18.651  0.00  0.00     0.143 C 
ATOM     40  O   UNK d   0     -20.781  26.612  19.839  0.00  0.00    -0.650 OA
BRANCH  39  41
ATOM     41  O   UNK d   0     -20.554  27.493  17.765  0.00  0.00    -0.776 OA
ATOM     42  H   UNK d   0     -19.732  28.101  17.692  0.00  0.00     0.167 HD
ENDBRANCH  39  41
ENDBRANCH  38  39
ENDBRANCH  31  38
BRANCH  27  43
ATOM     43  C   UNK d   0     -22.207  24.615  16.060  0.00  0.00     0.052 C 
BRANCH  43  44
ATOM     44  C   UNK d   0     -21.501  24.004  14.893  0.00  0.00     0.115 C 
BRANCH  44  45
ATOM     45  C   UNK d   0     -22.530  23.781  13.844  0.00  0.00     0.139 C 
ATOM     46  O   UNK d   0     -23.533  24.536  13.829  0.00  0.00    -0.650 OA
BRANCH  45  47
ATOM     47  O   UNK d   0     -22.424  22.790  12.893  0.00  0.00    -0.776 OA
ATOM     48  H   UNK d   0     -21.639  22.118  12.868  0.00  0.00     0.167 HD
ENDBRANCH  45  47
ENDBRANCH  44  45
ENDBRANCH  43  44
ENDBRANCH  27  43
BRANCH  24  49
ATOM     49  C   UNK d   0     -26.130  20.851  15.013  0.00  0.00     0.052 C 
BRANCH  49  50
ATOM     50  C   UNK d   0     -25.400  21.323  13.781  0.00  0.00     0.115 C 
BRANCH  50  51
ATOM     51  C   UNK d   0     -26.102  22.254  12.908  0.00  0.00     0.139 C 
ATOM     52  O   UNK d   0     -27.351  22.277  12.809  0.00  0.00    -0.650 OA
BRANCH  51  53
ATOM     53  O   UNK d   0     -25.378  23.158  12.145  0.00  0.00    -0.776 OA
ATOM     54  H   UNK d   0     -25.879  23.890  11.673  0.00  0.00     0.167 HD
ENDBRANCH  51  53
ENDBRANCH  50  51
ENDBRANCH  49  50
ENDBRANCH  24  49
BRANCH  21  55
ATOM     55  C   UNK d   0     -25.766  17.823  15.504  0.00  0.00     0.151 C 
BRANCH  55  56
ATOM     56  C   UNK d   0     -27.014  17.499  16.213  0.00  0.00     0.143 C 
ATOM     57  O   UNK d   0     -27.031  16.929  17.322  0.00  0.00    -0.650 OA
BRANCH  56  58
ATOM     58  O   UNK d   0     -28.217  17.853  15.605  0.00  0.00    -0.776 OA
ATOM     59  H   UNK d   0     -28.722  18.635  16.060  0.00  0.00     0.167 HD
ENDBRANCH  56  58
ENDBRANCH  55  56
ENDBRANCH  21  55
BRANCH  18  60
ATOM     60  C   UNK d   0     -23.757  15.671  19.992  0.00  0.00     0.151 C 
BRANCH  60  61
ATOM     61  C   UNK d   0     -23.151  14.452  19.436  0.00  0.00     0.143 C 
ATOM     62  O   UNK d   0     -22.833  14.249  18.263  0.00  0.00    -0.650 OA
BRANCH  61  63
ATOM     63  O   UNK d   0     -22.918  13.414  20.370  0.00  0.00    -0.776 OA
ATOM     64  H   UNK d   0     -21.984  13.146  20.625  0.00  0.00     0.167 HD
ENDBRANCH  61  63
ENDBRANCH  60  61
ENDBRANCH  18  60
BRANCH  14  65
ATOM     65  C   UNK d   0     -21.523  16.097  22.001  0.00  0.00     0.052 C 
BRANCH  65  66
ATOM     66  C   UNK d   0     -22.395  16.471  23.147  0.00  0.00     0.115 C 
BRANCH  66  67
ATOM     67  C   UNK d   0     -21.929  17.424  24.115  0.00  0.00     0.139 C 
ATOM     68  O   UNK d   0     -22.124  18.675  23.889  0.00  0.00    -0.650 OA
BRANCH  67  69
ATOM     69  O   UNK d   0     -21.265  17.167  25.314  0.00  0.00    -0.776 OA
ATOM     70  H   UNK d   0     -20.236  17.162  25.265  0.00  0.00     0.167 HD
ENDBRANCH  67  69
ENDBRANCH  66  67
ENDBRANCH  65  66
ENDBRANCH  14  65
ENDBRANCH   6   7
ENDBRANCH   5   6
ENDBRANCH   2   5
TORSDOF 28
ENDMDL
