MODEL 1
REMARK VINA RESULT:     -10.0      0.000      0.000
REMARK  28 active torsions:
REMARK  status: ('A' for Active; 'I' for Inactive)
REMARK    1  A    between atoms: C_2  and  O_3 
REMARK    2  A    between atoms: C_2  and  C_4 
REMARK    3  A    between atoms: C_4  and  C_5 
REMARK    4  A    between atoms: C_5  and  C_6 
REMARK    5  A    between atoms: C_7  and  C_8 
REMARK    6  A    between atoms: C_8  and  C_9 
REMARK    7  A    between atoms: C_9  and  O_11 
REMARK    8  A    between atoms: C_28  and  C_29 
REMARK    9  A    between atoms: C_29  and  C_30 
REMARK   10  A    between atoms: C_30  and  O_32 
REMARK   11  A    between atoms: C_33  and  C_34 
REMARK   12  A    between atoms: C_34  and  C_35 
REMARK   13  A    between atoms: C_35  and  C_36 
REMARK   14  A    between atoms: C_36  and  O_38 
REMARK   15  A    between atoms: C_39  and  C_40 
REMARK   16  A    between atoms: C_40  and  C_41 
REMARK   17  A    between atoms: C_41  and  C_42 
REMARK   18  A    between atoms: C_42  and  O_44 
REMARK   19  A    between atoms: C_45  and  C_46 
REMARK   20  A    between atoms: C_46  and  C_47 
REMARK   21  A    between atoms: C_47  and  O_49 
REMARK   22  A    between atoms: C_50  and  C_51 
REMARK   23  A    between atoms: C_51  and  C_52 
REMARK   24  A    between atoms: C_52  and  O_54 
REMARK   25  A    between atoms: C_55  and  C_56 
REMARK   26  A    between atoms: C_56  and  C_57 
REMARK   27  A    between atoms: C_57  and  C_58 
REMARK   28  A    between atoms: C_58  and  O_60 
ROOT
ATOM      1  O   UNK d   0     -26.822  -3.295   0.879  0.00  0.00    -0.650 OA
ATOM      2  C   UNK d   0     -26.689  -4.147   1.785  0.00  0.00     0.139 C 
ENDROOT
BRANCH   2   3
ATOM      3  O   UNK d   0     -27.452  -5.289   1.754  0.00  0.00    -0.776 OA
ATOM      4  H   UNK d   0     -27.019  -6.214   1.784  0.00  0.00     0.167 HD
ENDBRANCH   2   3
BRANCH   2   5
ATOM      5  C   UNK d   0     -25.710  -3.922   2.887  0.00  0.00     0.115 C 
BRANCH   5   6
ATOM      6  C   UNK d   0     -25.096  -5.228   3.309  0.00  0.00     0.052 C 
BRANCH   6   7
ATOM      7  C   UNK d   0     -23.586  -5.185   3.319  0.00  0.00    -0.020 A 
ATOM      8  C   UNK d   0     -22.798  -5.081   4.358  0.00  0.00    -0.011 A 
ATOM      9  C   UNK d   0     -21.426  -5.070   3.876  0.00  0.00     0.067 A 
ATOM     10  C   UNK d   0     -20.150  -5.005   4.457  0.00  0.00     0.062 C 
ATOM     11  N   UNK d   0     -21.473  -5.166   2.531  0.00  0.00    -0.248 NA
ATOM     12  C   UNK d   0     -18.925  -5.289   3.843  0.00  0.00     0.041 A 
ATOM     13  N   UNK d   0     -18.448  -4.970   2.625  0.00  0.00    -0.355 N 
ATOM     14  C   UNK d   0     -17.991  -6.088   4.528  0.00  0.00    -0.022 A 
ATOM     15  C   UNK d   0     -17.239  -5.552   2.516  0.00  0.00     0.042 A 
ATOM     16  H   UNK d   0     -18.948  -4.330   1.865  0.00  0.00     0.166 HD
ATOM     17  C   UNK d   0     -16.312  -5.539   1.454  0.00  0.00     0.062 C 
ATOM     18  C   UNK d   0     -16.918  -6.262   3.689  0.00  0.00    -0.013 A 
ATOM     19  C   UNK d   0     -16.536  -5.710   0.112  0.00  0.00     0.067 A 
ATOM     20  N   UNK d   0     -17.807  -5.692  -0.296  0.00  0.00    -0.248 NA
ATOM     21  C   UNK d   0     -15.712  -5.934  -1.064  0.00  0.00    -0.011 A 
ATOM     22  C   UNK d   0     -17.874  -5.890  -1.654  0.00  0.00     0.066 A 
ATOM     23  C   UNK d   0     -19.140  -5.857  -2.219  0.00  0.00     0.062 C 
ATOM     24  C   UNK d   0     -16.501  -6.042  -2.093  0.00  0.00    -0.020 A 
ATOM     25  C   UNK d   0     -20.357  -5.557  -1.588  0.00  0.00     0.041 A 
ATOM     26  N   UNK d   0     -20.837  -5.887  -0.383  0.00  0.00    -0.355 N 
ATOM     27  C   UNK d   0     -21.293  -4.752  -2.274  0.00  0.00    -0.022 A 
ATOM     28  C   UNK d   0     -22.047  -5.315  -0.275  0.00  0.00     0.042 A 
ATOM     29  H   UNK d   0     -20.338  -6.539   0.375  0.00  0.00     0.166 HD
ATOM     30  C   UNK d   0     -22.983  -5.327   0.771  0.00  0.00     0.062 C 
ATOM     31  C   UNK d   0     -22.364  -4.593  -1.450  0.00  0.00    -0.013 A 
ATOM     32  C   UNK d   0     -22.744  -5.239   2.133  0.00  0.00     0.066 A 
BRANCH   8  33
ATOM     33  C   UNK d   0     -23.205  -4.984   5.772  0.00  0.00     0.151 C 
BRANCH  33  34
ATOM     34  C   UNK d   0     -23.292  -3.591   6.247  0.00  0.00     0.143 C 
ATOM     35  O   UNK d   0     -24.010  -2.765   5.666  0.00  0.00    -0.650 OA
BRANCH  34  36
ATOM     36  O   UNK d   0     -22.564  -3.206   7.349  0.00  0.00    -0.776 OA
ATOM     37  H   UNK d   0     -22.856  -3.470   8.300  0.00  0.00     0.167 HD
ENDBRANCH  34  36
ENDBRANCH  33  34
ENDBRANCH   8  33
BRANCH  31  38
ATOM     38  C   UNK d   0     -23.610  -3.794  -1.752  0.00  0.00     0.151 C 
BRANCH  38  39
ATOM     39  C   UNK d   0     -23.596  -2.480  -1.145  0.00  0.00     0.143 C 
ATOM     40  O   UNK d   0     -22.823  -1.581  -1.521  0.00  0.00    -0.650 OA
BRANCH  39  41
ATOM     41  O   UNK d   0     -24.475  -2.197  -0.100  0.00  0.00    -0.776 OA
ATOM     42  H   UNK d   0     -24.491  -1.231   0.242  0.00  0.00     0.167 HD
ENDBRANCH  39  41
ENDBRANCH  38  39
ENDBRANCH  31  38
BRANCH  27  43
ATOM     43  C   UNK d   0     -21.206  -4.144  -3.652  0.00  0.00     0.052 C 
BRANCH  43  44
ATOM     44  C   UNK d   0     -21.683  -5.060  -4.732  0.00  0.00     0.115 C 
BRANCH  44  45
ATOM     45  C   UNK d   0     -21.292  -4.435  -6.022  0.00  0.00     0.139 C 
ATOM     46  O   UNK d   0     -21.362  -5.133  -7.063  0.00  0.00    -0.650 OA
BRANCH  45  47
ATOM     47  O   UNK d   0     -20.866  -3.128  -6.120  0.00  0.00    -0.776 OA
ATOM     48  H   UNK d   0     -20.275  -2.676  -5.403  0.00  0.00     0.167 HD
ENDBRANCH  45  47
ENDBRANCH  44  45
ENDBRANCH  43  44
ENDBRANCH  27  43
BRANCH  24  49
ATOM     49  C   UNK d   0     -16.083  -6.237  -3.492  0.00  0.00     0.052 C 
BRANCH  49  50
ATOM     50  C   UNK d   0     -15.769  -4.911  -4.135  0.00  0.00     0.115 C 
BRANCH  50  51
ATOM     51  C   UNK d   0     -14.533  -4.820  -4.902  0.00  0.00     0.139 C 
ATOM     52  O   UNK d   0     -13.401  -4.855  -4.366  0.00  0.00    -0.650 OA
BRANCH  51  53
ATOM     53  O   UNK d   0     -14.590  -4.685  -6.281  0.00  0.00    -0.776 OA
ATOM     54  H   UNK d   0     -15.198  -5.299  -6.794  0.00  0.00     0.167 HD
ENDBRANCH  51  53
ENDBRANCH  50  51
ENDBRANCH  49  50
ENDBRANCH  24  49
BRANCH  21  55
ATOM     55  C   UNK d   0     -14.221  -6.011  -1.037  0.00  0.00     0.151 C 
BRANCH  55  56
ATOM     56  C   UNK d   0     -13.726  -6.678   0.177  0.00  0.00     0.143 C 
ATOM     57  O   UNK d   0     -14.003  -7.860   0.459  0.00  0.00    -0.650 OA
BRANCH  56  58
ATOM     58  O   UNK d   0     -12.913  -5.940   1.036  0.00  0.00    -0.776 OA
ATOM     59  H   UNK d   0     -12.150  -6.479   1.485  0.00  0.00     0.167 HD
ENDBRANCH  56  58
ENDBRANCH  55  56
ENDBRANCH  21  55
BRANCH  18  60
ATOM     60  C   UNK d   0     -15.684  -7.064   4.019  0.00  0.00     0.151 C 
BRANCH  60  61
ATOM     61  C   UNK d   0     -14.612  -6.082   4.244  0.00  0.00     0.143 C 
ATOM     62  O   UNK d   0     -13.512  -6.044   3.692  0.00  0.00    -0.650 OA
BRANCH  61  63
ATOM     63  O   UNK d   0     -14.902  -5.084   5.205  0.00  0.00    -0.776 OA
ATOM     64  H   UNK d   0     -15.693  -5.169   5.819  0.00  0.00     0.167 HD
ENDBRANCH  61  63
ENDBRANCH  60  61
ENDBRANCH  18  60
BRANCH  14  65
ATOM     65  C   UNK d   0     -17.992  -6.611   5.936  0.00  0.00     0.052 C 
BRANCH  65  66
ATOM     66  C   UNK d   0     -19.357  -6.917   6.441  0.00  0.00     0.115 C 
BRANCH  66  67
ATOM     67  C   UNK d   0     -19.747  -6.478   7.751  0.00  0.00     0.139 C 
ATOM     68  O   UNK d   0     -20.909  -5.949   7.901  0.00  0.00    -0.650 OA
BRANCH  67  69
ATOM     69  O   UNK d   0     -19.006  -6.550   8.930  0.00  0.00    -0.776 OA
ATOM     70  H   UNK d   0     -19.145  -7.399   9.496  0.00  0.00     0.167 HD
ENDBRANCH  67  69
ENDBRANCH  66  67
ENDBRANCH  65  66
ENDBRANCH  14  65
ENDBRANCH   6   7
ENDBRANCH   5   6
ENDBRANCH   2   5
TORSDOF 28
ENDMDL
MODEL 2
REMARK VINA RESULT:      -9.9      1.900      7.831
REMARK  28 active torsions:
REMARK  status: ('A' for Active; 'I' for Inactive)
REMARK    1  A    between atoms: C_2  and  O_3 
REMARK    2  A    between atoms: C_2  and  C_4 
REMARK    3  A    between atoms: C_4  and  C_5 
REMARK    4  A    between atoms: C_5  and  C_6 
REMARK    5  A    between atoms: C_7  and  C_8 
REMARK    6  A    between atoms: C_8  and  C_9 
REMARK    7  A    between atoms: C_9  and  O_11 
REMARK    8  A    between atoms: C_28  and  C_29 
REMARK    9  A    between atoms: C_29  and  C_30 
REMARK   10  A    between atoms: C_30  and  O_32 
REMARK   11  A    between atoms: C_33  and  C_34 
REMARK   12  A    between atoms: C_34  and  C_35 
REMARK   13  A    between atoms: C_35  and  C_36 
REMARK   14  A    between atoms: C_36  and  O_38 
REMARK   15  A    between atoms: C_39  and  C_40 
REMARK   16  A    between atoms: C_40  and  C_41 
REMARK   17  A    between atoms: C_41  and  C_42 
REMARK   18  A    between atoms: C_42  and  O_44 
REMARK   19  A    between atoms: C_45  and  C_46 
REMARK   20  A    between atoms: C_46  and  C_47 
REMARK   21  A    between atoms: C_47  and  O_49 
REMARK   22  A    between atoms: C_50  and  C_51 
REMARK   23  A    between atoms: C_51  and  C_52 
REMARK   24  A    between atoms: C_52  and  O_54 
REMARK   25  A    between atoms: C_55  and  C_56 
REMARK   26  A    between atoms: C_56  and  C_57 
REMARK   27  A    between atoms: C_57  and  C_58 
REMARK   28  A    between atoms: C_58  and  O_60 
ROOT
ATOM      1  O   UNK d   0     -27.572  -1.241   4.733  0.00  0.00    -0.650 OA
ATOM      2  C   UNK d   0     -26.464  -1.812   4.623  0.00  0.00     0.139 C 
ENDROOT
BRANCH   2   3
ATOM      3  O   UNK d   0     -25.699  -2.019   5.746  0.00  0.00    -0.776 OA
ATOM      4  H   UNK d   0     -26.001  -2.663   6.479  0.00  0.00     0.167 HD
ENDBRANCH   2   3
BRANCH   2   5
ATOM      5  C   UNK d   0     -25.983  -2.260   3.286  0.00  0.00     0.115 C 
BRANCH   5   6
ATOM      6  C   UNK d   0     -26.005  -3.763   3.205  0.00  0.00     0.052 C 
BRANCH   6   7
ATOM      7  C   UNK d   0     -24.874  -4.316   2.372  0.00  0.00    -0.020 A 
ATOM      8  C   UNK d   0     -24.840  -4.470   1.073  0.00  0.00    -0.011 A 
ATOM      9  C   UNK d   0     -23.551  -5.046   0.727  0.00  0.00     0.067 A 
ATOM     10  C   UNK d   0     -22.896  -5.425  -0.456  0.00  0.00     0.062 C 
ATOM     11  N   UNK d   0     -22.866  -5.215   1.877  0.00  0.00    -0.248 NA
ATOM     12  C   UNK d   0     -21.536  -5.707  -0.618  0.00  0.00     0.041 A 
ATOM     13  N   UNK d   0     -20.679  -6.410   0.147  0.00  0.00    -0.355 N 
ATOM     14  C   UNK d   0     -20.852  -5.154  -1.716  0.00  0.00    -0.022 A 
ATOM     15  C   UNK d   0     -19.468  -6.311  -0.433  0.00  0.00     0.042 A 
ATOM     16  H   UNK d   0     -20.929  -6.981   1.068  0.00  0.00     0.166 HD
ATOM     17  C   UNK d   0     -18.225  -6.855  -0.052  0.00  0.00     0.062 C 
ATOM     18  C   UNK d   0     -19.537  -5.531  -1.604  0.00  0.00    -0.013 A 
ATOM     19  C   UNK d   0     -17.647  -6.895   1.191  0.00  0.00     0.067 A 
ATOM     20  N   UNK d   0     -18.418  -6.559   2.229  0.00  0.00    -0.248 NA
ATOM     21  C   UNK d   0     -16.330  -7.210   1.721  0.00  0.00    -0.011 A 
ATOM     22  C   UNK d   0     -17.701  -6.631   3.398  0.00  0.00     0.066 A 
ATOM     23  C   UNK d   0     -18.395  -6.343   4.564  0.00  0.00     0.062 C 
ATOM     24  C   UNK d   0     -16.368  -7.049   3.012  0.00  0.00    -0.020 A 
ATOM     25  C   UNK d   0     -19.765  -6.074   4.707  0.00  0.00     0.041 A 
ATOM     26  N   UNK d   0     -20.613  -5.363   3.955  0.00  0.00    -0.355 N 
ATOM     27  C   UNK d   0     -20.451  -6.633   5.807  0.00  0.00    -0.022 A 
ATOM     28  C   UNK d   0     -21.819  -5.453   4.536  0.00  0.00     0.042 A 
ATOM     29  H   UNK d   0     -20.358  -4.781   3.035  0.00  0.00     0.166 HD
ATOM     30  C   UNK d   0     -23.062  -4.910   4.173  0.00  0.00     0.062 C 
ATOM     31  C   UNK d   0     -21.752  -6.245   5.707  0.00  0.00    -0.013 A 
ATOM     32  C   UNK d   0     -23.606  -4.795   2.903  0.00  0.00     0.066 A 
BRANCH   8  33
ATOM     33  C   UNK d   0     -25.908  -4.133   0.114  0.00  0.00     0.151 C 
BRANCH  33  34
ATOM     34  C   UNK d   0     -25.837  -2.736  -0.351  0.00  0.00     0.143 C 
ATOM     35  O   UNK d   0     -24.815  -2.299  -0.899  0.00  0.00    -0.650 OA
BRANCH  34  36
ATOM     36  O   UNK d   0     -26.921  -1.908  -0.172  0.00  0.00    -0.776 OA
ATOM     37  H   UNK d   0     -27.462  -1.555  -0.973  0.00  0.00     0.167 HD
ENDBRANCH  34  36
ENDBRANCH  33  34
ENDBRANCH   8  33
BRANCH  31  38
ATOM     38  C   UNK d   0     -22.868  -6.614   6.656  0.00  0.00     0.151 C 
BRANCH  38  39
ATOM     39  C   UNK d   0     -23.562  -7.823   6.263  0.00  0.00     0.143 C 
ATOM     40  O   UNK d   0     -22.966  -8.813   5.805  0.00  0.00    -0.650 OA
BRANCH  39  41
ATOM     41  O   UNK d   0     -24.948  -7.893   6.400  0.00  0.00    -0.776 OA
ATOM     42  H   UNK d   0     -25.312  -8.587   7.060  0.00  0.00     0.167 HD
ENDBRANCH  39  41
ENDBRANCH  38  39
ENDBRANCH  31  38
BRANCH  27  43
ATOM     43  C   UNK d   0     -19.926  -7.500   6.925  0.00  0.00     0.052 C 
BRANCH  43  44
ATOM     44  C   UNK d   0     -19.371  -6.716   8.069  0.00  0.00     0.115 C 
BRANCH  44  45
ATOM     45  C   UNK d   0     -17.916  -7.017   8.124  0.00  0.00     0.139 C 
ATOM     46  O   UNK d   0     -17.555  -8.214   8.006  0.00  0.00    -0.650 OA
BRANCH  45  47
ATOM     47  O   UNK d   0     -16.957  -6.042   8.292  0.00  0.00    -0.776 OA
ATOM     48  H   UNK d   0     -16.592  -5.769   9.219  0.00  0.00     0.167 HD
ENDBRANCH  45  47
ENDBRANCH  44  45
ENDBRANCH  43  44
ENDBRANCH  27  43
BRANCH  24  49
ATOM     49  C   UNK d   0     -15.260  -7.298   3.951  0.00  0.00     0.052 C 
BRANCH  49  50
ATOM     50  C   UNK d   0     -14.896  -6.030   4.680  0.00  0.00     0.115 C 
BRANCH  50  51
ATOM     51  C   UNK d   0     -14.254  -4.977   3.904  0.00  0.00     0.139 C 
ATOM     52  O   UNK d   0     -14.864  -3.952   3.520  0.00  0.00    -0.650 OA
BRANCH  51  53
ATOM     53  O   UNK d   0     -12.916  -5.096   3.562  0.00  0.00    -0.776 OA
ATOM     54  H   UNK d   0     -12.394  -5.866   3.943  0.00  0.00     0.167 HD
ENDBRANCH  51  53
ENDBRANCH  50  51
ENDBRANCH  49  50
ENDBRANCH  24  49
BRANCH  21  55
ATOM     55  C   UNK d   0     -15.174  -7.642   0.882  0.00  0.00     0.151 C 
BRANCH  55  56
ATOM     56  C   UNK d   0     -14.598  -6.525   0.118  0.00  0.00     0.143 C 
ATOM     57  O   UNK d   0     -14.918  -6.277  -1.061  0.00  0.00    -0.650 OA
BRANCH  56  58
ATOM     58  O   UNK d   0     -13.657  -5.719   0.756  0.00  0.00    -0.776 OA
ATOM     59  H   UNK d   0     -13.865  -4.705   0.736  0.00  0.00     0.167 HD
ENDBRANCH  56  58
ENDBRANCH  55  56
ENDBRANCH  21  55
BRANCH  18  60
ATOM     60  C   UNK d   0     -18.443  -5.150  -2.570  0.00  0.00     0.151 C 
BRANCH  60  61
ATOM     61  C   UNK d   0     -18.001  -6.405  -3.196  0.00  0.00     0.143 C 
ATOM     62  O   UNK d   0     -18.698  -7.382  -3.473  0.00  0.00    -0.650 OA
BRANCH  61  63
ATOM     63  O   UNK d   0     -16.621  -6.472  -3.504  0.00  0.00    -0.776 OA
ATOM     64  H   UNK d   0     -15.981  -5.773  -3.171  0.00  0.00     0.167 HD
ENDBRANCH  61  63
ENDBRANCH  60  61
ENDBRANCH  18  60
BRANCH  14  65
ATOM     65  C   UNK d   0     -21.361  -4.388  -2.903  0.00  0.00     0.052 C 
BRANCH  65  66
ATOM     66  C   UNK d   0     -21.499  -5.228  -4.123  0.00  0.00     0.115 C 
BRANCH  66  67
ATOM     67  C   UNK d   0     -21.112  -4.699  -5.400  0.00  0.00     0.139 C 
ATOM     68  O   UNK d   0     -19.858  -4.595  -5.666  0.00  0.00    -0.650 OA
BRANCH  67  69
ATOM     69  O   UNK d   0     -21.943  -4.265  -6.432  0.00  0.00    -0.776 OA
ATOM     70  H   UNK d   0     -21.930  -4.836  -7.288  0.00  0.00     0.167 HD
ENDBRANCH  67  69
ENDBRANCH  66  67
ENDBRANCH  65  66
ENDBRANCH  14  65
ENDBRANCH   6   7
ENDBRANCH   5   6
ENDBRANCH   2   5
TORSDOF 28
ENDMDL
MODEL 3
REMARK VINA RESULT:      -9.4      1.966      7.813
REMARK  28 active torsions:
REMARK  status: ('A' for Active; 'I' for Inactive)
REMARK    1  A    between atoms: C_2  and  O_3 
REMARK    2  A    between atoms: C_2  and  C_4 
REMARK    3  A    between atoms: C_4  and  C_5 
REMARK    4  A    between atoms: C_5  and  C_6 
REMARK    5  A    between atoms: C_7  and  C_8 
REMARK    6  A    between atoms: C_8  and  C_9 
REMARK    7  A    between atoms: C_9  and  O_11 
REMARK    8  A    between atoms: C_28  and  C_29 
REMARK    9  A    between atoms: C_29  and  C_30 
REMARK   10  A    between atoms: C_30  and  O_32 
REMARK   11  A    between atoms: C_33  and  C_34 
REMARK   12  A    between atoms: C_34  and  C_35 
REMARK   13  A    between atoms: C_35  and  C_36 
REMARK   14  A    between atoms: C_36  and  O_38 
REMARK   15  A    between atoms: C_39  and  C_40 
REMARK   16  A    between atoms: C_40  and  C_41 
REMARK   17  A    between atoms: C_41  and  C_42 
REMARK   18  A    between atoms: C_42  and  O_44 
REMARK   19  A    between atoms: C_45  and  C_46 
REMARK   20  A    between atoms: C_46  and  C_47 
REMARK   21  A    between atoms: C_47  and  O_49 
REMARK   22  A    between atoms: C_50  and  C_51 
REMARK   23  A    between atoms: C_51  and  C_52 
REMARK   24  A    between atoms: C_52  and  O_54 
REMARK   25  A    between atoms: C_55  and  C_56 
REMARK   26  A    between atoms: C_56  and  C_57 
REMARK   27  A    between atoms: C_57  and  C_58 
REMARK   28  A    between atoms: C_58  and  O_60 
ROOT
ATOM      1  O   UNK d   0     -18.524  -7.509   9.609  0.00  0.00    -0.650 OA
ATOM      2  C   UNK d   0     -17.794  -8.210   8.874  0.00  0.00     0.139 C 
ENDROOT
BRANCH   2   3
ATOM      3  O   UNK d   0     -16.857  -9.037   9.445  0.00  0.00    -0.776 OA
ATOM      4  H   UNK d   0     -15.860  -8.909   9.265  0.00  0.00     0.167 HD
ENDBRANCH   2   3
BRANCH   2   5
ATOM      5  C   UNK d   0     -17.943  -8.145   7.392  0.00  0.00     0.115 C 
BRANCH   5   6
ATOM      6  C   UNK d   0     -18.340  -6.756   6.972  0.00  0.00     0.052 C 
BRANCH   6   7
ATOM      7  C   UNK d   0     -18.113  -6.507   5.500  0.00  0.00    -0.020 A 
ATOM      8  C   UNK d   0     -16.968  -6.410   4.874  0.00  0.00    -0.011 A 
ATOM      9  C   UNK d   0     -17.248  -6.158   3.471  0.00  0.00     0.067 A 
ATOM     10  C   UNK d   0     -16.489  -5.982   2.303  0.00  0.00     0.062 C 
ATOM     11  N   UNK d   0     -18.589  -6.112   3.332  0.00  0.00    -0.248 NA
ATOM     12  C   UNK d   0     -16.946  -6.026   0.981  0.00  0.00     0.041 A 
ATOM     13  N   UNK d   0     -18.051  -5.513   0.407  0.00  0.00    -0.355 N 
ATOM     14  C   UNK d   0     -16.211  -6.759   0.031  0.00  0.00    -0.022 A 
ATOM     15  C   UNK d   0     -18.040  -5.908  -0.880  0.00  0.00     0.042 A 
ATOM     16  H   UNK d   0     -18.813  -4.868   0.898  0.00  0.00     0.166 HD
ATOM     17  C   UNK d   0     -18.954  -5.652  -1.921  0.00  0.00     0.062 C 
ATOM     18  C   UNK d   0     -16.902  -6.691  -1.153  0.00  0.00    -0.013 A 
ATOM     19  C   UNK d   0     -20.324  -5.703  -1.898  0.00  0.00     0.067 A 
ATOM     20  N   UNK d   0     -20.905  -5.816  -0.701  0.00  0.00    -0.248 NA
ATOM     21  C   UNK d   0     -21.388  -5.681  -2.889  0.00  0.00    -0.011 A 
ATOM     22  C   UNK d   0     -22.271  -5.871  -0.837  0.00  0.00     0.066 A 
ATOM     23  C   UNK d   0     -23.005  -5.950   0.337  0.00  0.00     0.062 C 
ATOM     24  C   UNK d   0     -22.524  -5.784  -2.262  0.00  0.00    -0.020 A 
ATOM     25  C   UNK d   0     -22.527  -5.891   1.656  0.00  0.00     0.041 A 
ATOM     26  N   UNK d   0     -21.437  -6.414   2.229  0.00  0.00    -0.355 N 
ATOM     27  C   UNK d   0     -23.263  -5.152   2.607  0.00  0.00    -0.022 A 
ATOM     28  C   UNK d   0     -21.450  -6.029   3.515  0.00  0.00     0.042 A 
ATOM     29  H   UNK d   0     -20.678  -7.071   1.738  0.00  0.00     0.166 HD
ATOM     30  C   UNK d   0     -20.553  -6.284   4.564  0.00  0.00     0.062 C 
ATOM     31  C   UNK d   0     -22.588  -5.234   3.787  0.00  0.00    -0.013 A 
ATOM     32  C   UNK d   0     -19.168  -6.315   4.516  0.00  0.00     0.066 A 
BRANCH   8  33
ATOM     33  C   UNK d   0     -15.623  -6.526   5.468  0.00  0.00     0.151 C 
BRANCH  33  34
ATOM     34  C   UNK d   0     -14.822  -5.298   5.311  0.00  0.00     0.143 C 
ATOM     35  O   UNK d   0     -15.305  -4.186   5.568  0.00  0.00    -0.650 OA
BRANCH  34  36
ATOM     36  O   UNK d   0     -13.522  -5.391   4.871  0.00  0.00    -0.776 OA
ATOM     37  H   UNK d   0     -13.053  -6.303   4.780  0.00  0.00     0.167 HD
ENDBRANCH  34  36
ENDBRANCH  33  34
ENDBRANCH   8  33
BRANCH  31  38
ATOM     38  C   UNK d   0     -22.990  -4.585   5.090  0.00  0.00     0.151 C 
BRANCH  38  39
ATOM     39  C   UNK d   0     -23.983  -5.349   5.815  0.00  0.00     0.143 C 
ATOM     40  O   UNK d   0     -23.860  -6.569   6.026  0.00  0.00    -0.650 OA
BRANCH  39  41
ATOM     41  O   UNK d   0     -25.122  -4.709   6.301  0.00  0.00    -0.776 OA
ATOM     42  H   UNK d   0     -25.991  -4.851   5.777  0.00  0.00     0.167 HD
ENDBRANCH  39  41
ENDBRANCH  38  39
ENDBRANCH  31  38
BRANCH  27  43
ATOM     43  C   UNK d   0     -24.555  -4.391   2.440  0.00  0.00     0.052 C 
BRANCH  43  44
ATOM     44  C   UNK d   0     -25.763  -5.270   2.452  0.00  0.00     0.115 C 
BRANCH  44  45
ATOM     45  C   UNK d   0     -26.869  -4.479   1.851  0.00  0.00     0.139 C 
ATOM     46  O   UNK d   0     -28.017  -4.987   1.831  0.00  0.00    -0.650 OA
BRANCH  45  47
ATOM     47  O   UNK d   0     -26.686  -3.218   1.325  0.00  0.00    -0.776 OA
ATOM     48  H   UNK d   0     -27.465  -2.558   1.167  0.00  0.00     0.167 HD
ENDBRANCH  45  47
ENDBRANCH  44  45
ENDBRANCH  43  44
ENDBRANCH  27  43
BRANCH  24  49
ATOM     49  C   UNK d   0     -23.861  -5.764  -2.879  0.00  0.00     0.052 C 
BRANCH  49  50
ATOM     50  C   UNK d   0     -24.855  -6.478  -1.999  0.00  0.00     0.115 C 
BRANCH  50  51
ATOM     51  C   UNK d   0     -25.897  -5.669  -1.381  0.00  0.00     0.139 C 
ATOM     52  O   UNK d   0     -25.855  -4.416  -1.357  0.00  0.00    -0.650 OA
BRANCH  51  53
ATOM     53  O   UNK d   0     -26.985  -6.289  -0.786  0.00  0.00    -0.776 OA
ATOM     54  H   UNK d   0     -27.813  -5.743  -0.623  0.00  0.00     0.167 HD
ENDBRANCH  51  53
ENDBRANCH  50  51
ENDBRANCH  49  50
ENDBRANCH  24  49
BRANCH  21  55
ATOM     55  C   UNK d   0     -21.157  -5.556  -4.359  0.00  0.00     0.151 C 
BRANCH  55  56
ATOM     56  C   UNK d   0     -21.099  -4.150  -4.790  0.00  0.00     0.143 C 
ATOM     57  O   UNK d   0     -20.618  -3.800  -5.885  0.00  0.00    -0.650 OA
BRANCH  56  58
ATOM     58  O   UNK d   0     -21.607  -3.184  -3.923  0.00  0.00    -0.776 OA
ATOM     59  H   UNK d   0     -22.331  -3.525  -3.266  0.00  0.00     0.167 HD
ENDBRANCH  56  58
ENDBRANCH  55  56
ENDBRANCH  21  55
BRANCH  18  60
ATOM     60  C   UNK d   0     -16.474  -7.347  -2.442  0.00  0.00     0.151 C 
BRANCH  60  61
ATOM     61  C   UNK d   0     -17.372  -8.498  -2.627  0.00  0.00     0.143 C 
ATOM     62  O   UNK d   0     -17.922  -8.850  -3.671  0.00  0.00    -0.650 OA
BRANCH  61  63
ATOM     63  O   UNK d   0     -17.612  -9.267  -1.463  0.00  0.00    -0.776 OA
ATOM     64  H   UNK d   0     -17.824 -10.248  -1.524  0.00  0.00     0.167 HD
ENDBRANCH  61  63
ENDBRANCH  60  61
ENDBRANCH  18  60
BRANCH  14  65
ATOM     65  C   UNK d   0     -14.870  -7.429   0.132  0.00  0.00     0.052 C 
BRANCH  65  66
ATOM     66  C   UNK d   0     -14.894  -8.654   0.975  0.00  0.00     0.115 C 
BRANCH  66  67
ATOM     67  C   UNK d   0     -14.378  -8.607   2.314  0.00  0.00     0.139 C 
ATOM     68  O   UNK d   0     -14.730  -9.528   3.140  0.00  0.00    -0.650 OA
BRANCH  67  69
ATOM     69  O   UNK d   0     -13.513  -7.661   2.862  0.00  0.00    -0.776 OA
ATOM     70  H   UNK d   0     -12.762  -7.328   2.241  0.00  0.00     0.167 HD
ENDBRANCH  67  69
ENDBRANCH  66  67
ENDBRANCH  65  66
ENDBRANCH  14  65
ENDBRANCH   6   7
ENDBRANCH   5   6
ENDBRANCH   2   5
TORSDOF 28
ENDMDL
MODEL 4
REMARK VINA RESULT:      -9.3      3.473      9.801
REMARK  28 active torsions:
REMARK  status: ('A' for Active; 'I' for Inactive)
REMARK    1  A    between atoms: C_2  and  O_3 
REMARK    2  A    between atoms: C_2  and  C_4 
REMARK    3  A    between atoms: C_4  and  C_5 
REMARK    4  A    between atoms: C_5  and  C_6 
REMARK    5  A    between atoms: C_7  and  C_8 
REMARK    6  A    between atoms: C_8  and  C_9 
REMARK    7  A    between atoms: C_9  and  O_11 
REMARK    8  A    between atoms: C_28  and  C_29 
REMARK    9  A    between atoms: C_29  and  C_30 
REMARK   10  A    between atoms: C_30  and  O_32 
REMARK   11  A    between atoms: C_33  and  C_34 
REMARK   12  A    between atoms: C_34  and  C_35 
REMARK   13  A    between atoms: C_35  and  C_36 
REMARK   14  A    between atoms: C_36  and  O_38 
REMARK   15  A    between atoms: C_39  and  C_40 
REMARK   16  A    between atoms: C_40  and  C_41 
REMARK   17  A    between atoms: C_41  and  C_42 
REMARK   18  A    between atoms: C_42  and  O_44 
REMARK   19  A    between atoms: C_45  and  C_46 
REMARK   20  A    between atoms: C_46  and  C_47 
REMARK   21  A    between atoms: C_47  and  O_49 
REMARK   22  A    between atoms: C_50  and  C_51 
REMARK   23  A    between atoms: C_51  and  C_52 
REMARK   24  A    between atoms: C_52  and  O_54 
REMARK   25  A    between atoms: C_55  and  C_56 
REMARK   26  A    between atoms: C_56  and  C_57 
REMARK   27  A    between atoms: C_57  and  C_58 
REMARK   28  A    between atoms: C_58  and  O_60 
ROOT
ATOM      1  O   UNK d   0     -27.362  -6.240   1.004  0.00  0.00    -0.650 OA
ATOM      2  C   UNK d   0     -26.530  -5.319   1.162  0.00  0.00     0.139 C 
ENDROOT
BRANCH   2   3
ATOM      3  O   UNK d   0     -25.976  -4.716   0.059  0.00  0.00    -0.776 OA
ATOM      4  H   UNK d   0     -25.298  -3.958   0.157  0.00  0.00     0.167 HD
ENDBRANCH   2   3
BRANCH   2   5
ATOM      5  C   UNK d   0     -26.146  -4.885   2.535  0.00  0.00     0.115 C 
BRANCH   5   6
ATOM      6  C   UNK d   0     -24.983  -3.932   2.470  0.00  0.00     0.052 C 
BRANCH   6   7
ATOM      7  C   UNK d   0     -23.690  -4.560   2.934  0.00  0.00    -0.020 A 
ATOM      8  C   UNK d   0     -22.663  -4.906   2.201  0.00  0.00    -0.011 A 
ATOM      9  C   UNK d   0     -21.659  -5.476   3.083  0.00  0.00     0.067 A 
ATOM     10  C   UNK d   0     -20.366  -6.003   2.939  0.00  0.00     0.062 C 
ATOM     11  N   UNK d   0     -22.161  -5.443   4.335  0.00  0.00    -0.248 NA
ATOM     12  C   UNK d   0     -19.435  -6.252   3.953  0.00  0.00     0.041 A 
ATOM     13  N   UNK d   0     -19.580  -6.798   5.175  0.00  0.00    -0.355 N 
ATOM     14  C   UNK d   0     -18.101  -5.845   3.768  0.00  0.00    -0.022 A 
ATOM     15  C   UNK d   0     -18.375  -6.740   5.773  0.00  0.00     0.042 A 
ATOM     16  H   UNK d   0     -20.512  -7.233   5.600  0.00  0.00     0.166 HD
ATOM     17  C   UNK d   0     -17.968  -7.170   7.052  0.00  0.00     0.062 C 
ATOM     18  C   UNK d   0     -17.422  -6.148   4.921  0.00  0.00    -0.013 A 
ATOM     19  C   UNK d   0     -18.596  -7.000   8.259  0.00  0.00     0.067 A 
ATOM     20  N   UNK d   0     -19.850  -6.543   8.230  0.00  0.00    -0.248 NA
ATOM     21  C   UNK d   0     -18.239  -7.179   9.657  0.00  0.00    -0.011 A 
ATOM     22  C   UNK d   0     -20.339  -6.409   9.506  0.00  0.00     0.066 A 
ATOM     23  C   UNK d   0     -21.652  -5.976   9.622  0.00  0.00     0.062 C 
ATOM     24  C   UNK d   0     -19.261  -6.828  10.381  0.00  0.00    -0.020 A 
ATOM     25  C   UNK d   0     -22.575  -5.744   8.590  0.00  0.00     0.041 A 
ATOM     26  N   UNK d   0     -22.433  -5.188   7.381  0.00  0.00    -0.355 N 
ATOM     27  C   UNK d   0     -23.912  -6.157   8.775  0.00  0.00    -0.022 A 
ATOM     28  C   UNK d   0     -23.636  -5.236   6.786  0.00  0.00     0.042 A 
ATOM     29  H   UNK d   0     -21.499  -4.741   6.960  0.00  0.00     0.166 HD
ATOM     30  C   UNK d   0     -24.056  -4.803   5.519  0.00  0.00     0.062 C 
ATOM     31  C   UNK d   0     -24.590  -5.840   7.639  0.00  0.00    -0.013 A 
ATOM     32  C   UNK d   0     -23.380  -4.903   4.313  0.00  0.00     0.066 A 
BRANCH   8  33
ATOM     33  C   UNK d   0     -22.529  -4.759   0.740  0.00  0.00     0.151 C 
BRANCH  33  34
ATOM     34  C   UNK d   0     -22.624  -6.045   0.026  0.00  0.00     0.143 C 
ATOM     35  O   UNK d   0     -23.653  -6.733   0.088  0.00  0.00    -0.650 OA
BRANCH  34  36
ATOM     36  O   UNK d   0     -21.554  -6.486  -0.718  0.00  0.00    -0.776 OA
ATOM     37  H   UNK d   0     -20.606  -6.526  -0.319  0.00  0.00     0.167 HD
ENDBRANCH  34  36
ENDBRANCH  33  34
ENDBRANCH   8  33
BRANCH  31  38
ATOM     38  C   UNK d   0     -26.053  -6.106   7.370  0.00  0.00     0.151 C 
BRANCH  38  39
ATOM     39  C   UNK d   0     -26.894  -4.964   7.659  0.00  0.00     0.143 C 
ATOM     40  O   UNK d   0     -28.068  -4.884   7.259  0.00  0.00    -0.650 OA
BRANCH  39  41
ATOM     41  O   UNK d   0     -26.381  -3.908   8.413  0.00  0.00    -0.776 OA
ATOM     42  H   UNK d   0     -27.027  -3.144   8.635  0.00  0.00     0.167 HD
ENDBRANCH  39  41
ENDBRANCH  38  39
ENDBRANCH  31  38
BRANCH  27  43
ATOM     43  C   UNK d   0     -24.553  -6.824   9.967  0.00  0.00     0.052 C 
BRANCH  43  44
ATOM     44  C   UNK d   0     -24.270  -8.289  10.046  0.00  0.00     0.115 C 
BRANCH  44  45
ATOM     45  C   UNK d   0     -25.541  -8.985   9.715  0.00  0.00     0.139 C 
ATOM     46  O   UNK d   0     -26.420  -9.069  10.609  0.00  0.00    -0.650 OA
BRANCH  45  47
ATOM     47  O   UNK d   0     -25.793  -9.531   8.476  0.00  0.00    -0.776 OA
ATOM     48  H   UNK d   0     -25.570 -10.512   8.239  0.00  0.00     0.167 HD
ENDBRANCH  45  47
ENDBRANCH  44  45
ENDBRANCH  43  44
ENDBRANCH  27  43
BRANCH  24  49
ATOM     49  C   UNK d   0     -19.347  -6.888  11.851  0.00  0.00     0.052 C 
BRANCH  49  50
ATOM     50  C   UNK d   0     -19.890  -5.593  12.398  0.00  0.00     0.115 C 
BRANCH  50  51
ATOM     51  C   UNK d   0     -20.503  -5.635  13.719  0.00  0.00     0.139 C 
ATOM     52  O   UNK d   0     -19.831  -5.713  14.774  0.00  0.00    -0.650 OA
BRANCH  51  53
ATOM     53  O   UNK d   0     -21.884  -5.591  13.836  0.00  0.00    -0.776 OA
ATOM     54  H   UNK d   0     -22.284  -4.954  14.502  0.00  0.00     0.167 HD
ENDBRANCH  51  53
ENDBRANCH  50  51
ENDBRANCH  49  50
ENDBRANCH  24  49
BRANCH  21  55
ATOM     55  C   UNK d   0     -16.914  -7.687  10.122  0.00  0.00     0.151 C 
BRANCH  55  56
ATOM     56  C   UNK d   0     -16.887  -9.155  10.212  0.00  0.00     0.143 C 
ATOM     57  O   UNK d   0     -16.665  -9.888   9.228  0.00  0.00    -0.650 OA
BRANCH  56  58
ATOM     58  O   UNK d   0     -17.122  -9.733  11.458  0.00  0.00    -0.776 OA
ATOM     59  H   UNK d   0     -18.120  -9.895  11.683  0.00  0.00     0.167 HD
ENDBRANCH  56  58
ENDBRANCH  55  56
ENDBRANCH  21  55
BRANCH  18  60
ATOM     60  C   UNK d   0     -15.958  -5.874   5.161  0.00  0.00     0.151 C 
BRANCH  60  61
ATOM     61  C   UNK d   0     -15.898  -4.570   5.840  0.00  0.00     0.143 C 
ATOM     62  O   UNK d   0     -16.040  -3.460   5.328  0.00  0.00    -0.650 OA
BRANCH  61  63
ATOM     63  O   UNK d   0     -15.648  -4.628   7.233  0.00  0.00    -0.776 OA
ATOM     64  H   UNK d   0     -15.044  -3.960   7.679  0.00  0.00     0.167 HD
ENDBRANCH  61  63
ENDBRANCH  60  61
ENDBRANCH  18  60
BRANCH  14  65
ATOM     65  C   UNK d   0     -17.405  -5.286   2.559  0.00  0.00     0.052 C 
BRANCH  65  66
ATOM     66  C   UNK d   0     -17.037  -6.330   1.566  0.00  0.00     0.115 C 
BRANCH  66  67
ATOM     67  C   UNK d   0     -15.726  -6.915   1.601  0.00  0.00     0.139 C 
ATOM     68  O   UNK d   0     -14.713  -6.143   1.777  0.00  0.00    -0.650 OA
BRANCH  67  69
ATOM     69  O   UNK d   0     -15.388  -8.262   1.464  0.00  0.00    -0.776 OA
ATOM     70  H   UNK d   0     -14.484  -8.453   1.010  0.00  0.00     0.167 HD
ENDBRANCH  67  69
ENDBRANCH  66  67
ENDBRANCH  65  66
ENDBRANCH  14  65
ENDBRANCH   6   7
ENDBRANCH   5   6
ENDBRANCH   2   5
TORSDOF 28
ENDMDL
MODEL 5
REMARK VINA RESULT:      -9.3      2.966      8.525
REMARK  28 active torsions:
REMARK  status: ('A' for Active; 'I' for Inactive)
REMARK    1  A    between atoms: C_2  and  O_3 
REMARK    2  A    between atoms: C_2  and  C_4 
REMARK    3  A    between atoms: C_4  and  C_5 
REMARK    4  A    between atoms: C_5  and  C_6 
REMARK    5  A    between atoms: C_7  and  C_8 
REMARK    6  A    between atoms: C_8  and  C_9 
REMARK    7  A    between atoms: C_9  and  O_11 
REMARK    8  A    between atoms: C_28  and  C_29 
REMARK    9  A    between atoms: C_29  and  C_30 
REMARK   10  A    between atoms: C_30  and  O_32 
REMARK   11  A    between atoms: C_33  and  C_34 
REMARK   12  A    between atoms: C_34  and  C_35 
REMARK   13  A    between atoms: C_35  and  C_36 
REMARK   14  A    between atoms: C_36  and  O_38 
REMARK   15  A    between atoms: C_39  and  C_40 
REMARK   16  A    between atoms: C_40  and  C_41 
REMARK   17  A    between atoms: C_41  and  C_42 
REMARK   18  A    between atoms: C_42  and  O_44 
REMARK   19  A    between atoms: C_45  and  C_46 
REMARK   20  A    between atoms: C_46  and  C_47 
REMARK   21  A    between atoms: C_47  and  O_49 
REMARK   22  A    between atoms: C_50  and  C_51 
REMARK   23  A    between atoms: C_51  and  C_52 
REMARK   24  A    between atoms: C_52  and  O_54 
REMARK   25  A    between atoms: C_55  and  C_56 
REMARK   26  A    between atoms: C_56  and  C_57 
REMARK   27  A    between atoms: C_57  and  C_58 
REMARK   28  A    between atoms: C_58  and  O_60 
ROOT
ATOM      1  O   UNK d   0     -28.361  -4.104   9.343  0.00  0.00    -0.650 OA
ATOM      2  C   UNK d   0     -27.238  -4.372   8.859  0.00  0.00     0.139 C 
ENDROOT
BRANCH   2   3
ATOM      3  O   UNK d   0     -27.090  -5.496   8.082  0.00  0.00    -0.776 OA
ATOM      4  H   UNK d   0     -27.903  -6.025   7.760  0.00  0.00     0.167 HD
ENDBRANCH   2   3
BRANCH   2   5
ATOM      5  C   UNK d   0     -26.076  -3.477   9.126  0.00  0.00     0.115 C 
BRANCH   5   6
ATOM      6  C   UNK d   0     -26.079  -2.323   8.161  0.00  0.00     0.052 C 
BRANCH   6   7
ATOM      7  C   UNK d   0     -25.903  -2.763   6.727  0.00  0.00    -0.020 A 
ATOM      8  C   UNK d   0     -26.734  -2.592   5.731  0.00  0.00    -0.011 A 
ATOM      9  C   UNK d   0     -26.140  -3.190   4.548  0.00  0.00     0.067 A 
ATOM     10  C   UNK d   0     -26.493  -3.326   3.196  0.00  0.00     0.062 C 
ATOM     11  N   UNK d   0     -24.949  -3.708   4.915  0.00  0.00    -0.248 NA
ATOM     12  C   UNK d   0     -25.658  -3.695   2.135  0.00  0.00     0.041 A 
ATOM     13  N   UNK d   0     -24.712  -4.649   2.042  0.00  0.00    -0.355 N 
ATOM     14  C   UNK d   0     -25.714  -2.958   0.938  0.00  0.00    -0.022 A 
ATOM     15  C   UNK d   0     -24.161  -4.531   0.819  0.00  0.00     0.042 A 
ATOM     16  H   UNK d   0     -24.453  -5.403   2.817  0.00  0.00     0.166 HD
ATOM     17  C   UNK d   0     -23.133  -5.275   0.205  0.00  0.00     0.062 C 
ATOM     18  C   UNK d   0     -24.763  -3.482   0.098  0.00  0.00    -0.013 A 
ATOM     19  C   UNK d   0     -21.932  -5.680   0.728  0.00  0.00     0.067 A 
ATOM     20  N   UNK d   0     -21.767  -5.538   2.045  0.00  0.00    -0.248 NA
ATOM     21  C   UNK d   0     -20.702  -6.248   0.201  0.00  0.00    -0.011 A 
ATOM     22  C   UNK d   0     -20.517  -5.969   2.418  0.00  0.00     0.066 A 
ATOM     23  C   UNK d   0     -20.225  -5.913   3.773  0.00  0.00     0.062 C 
ATOM     24  C   UNK d   0     -19.877  -6.411   1.195  0.00  0.00    -0.020 A 
ATOM     25  C   UNK d   0     -21.081  -5.552   4.824  0.00  0.00     0.041 A 
ATOM     26  N   UNK d   0     -22.011  -4.594   4.922  0.00  0.00    -0.355 N 
ATOM     27  C   UNK d   0     -21.028  -6.294   6.023  0.00  0.00    -0.022 A 
ATOM     28  C   UNK d   0     -22.556  -4.703   6.144  0.00  0.00     0.042 A 
ATOM     29  H   UNK d   0     -22.263  -3.830   4.146  0.00  0.00     0.166 HD
ATOM     30  C   UNK d   0     -23.572  -3.965   6.771  0.00  0.00     0.062 C 
ATOM     31  C   UNK d   0     -21.959  -5.765   6.864  0.00  0.00    -0.013 A 
ATOM     32  C   UNK d   0     -24.747  -3.484   6.215  0.00  0.00     0.066 A 
BRANCH   8  33
ATOM     33  C   UNK d   0     -28.046  -1.920   5.779  0.00  0.00     0.151 C 
BRANCH  33  34
ATOM     34  C   UNK d   0     -29.095  -2.761   6.384  0.00  0.00     0.143 C 
ATOM     35  O   UNK d   0     -29.193  -3.962   6.096  0.00  0.00    -0.650 OA
BRANCH  34  36
ATOM     36  O   UNK d   0     -29.977  -2.201   7.279  0.00  0.00    -0.776 OA
ATOM     37  H   UNK d   0     -30.744  -1.592   6.963  0.00  0.00     0.167 HD
ENDBRANCH  34  36
ENDBRANCH  33  34
ENDBRANCH   8  33
BRANCH  31  38
ATOM     38  C   UNK d   0     -22.272  -6.244   8.262  0.00  0.00     0.151 C 
BRANCH  38  39
ATOM     39  C   UNK d   0     -23.566  -6.887   8.358  0.00  0.00     0.143 C 
ATOM     40  O   UNK d   0     -24.348  -6.671   9.300  0.00  0.00    -0.650 OA
BRANCH  39  41
ATOM     41  O   UNK d   0     -23.962  -7.783   7.365  0.00  0.00    -0.776 OA
ATOM     42  H   UNK d   0     -23.246  -8.424   7.009  0.00  0.00     0.167 HD
ENDBRANCH  39  41
ENDBRANCH  38  39
ENDBRANCH  31  38
BRANCH  27  43
ATOM     43  C   UNK d   0     -20.144  -7.460   6.391  0.00  0.00     0.052 C 
BRANCH  43  44
ATOM     44  C   UNK d   0     -18.700  -7.093   6.502  0.00  0.00     0.115 C 
BRANCH  44  45
ATOM     45  C   UNK d   0     -18.314  -7.316   7.920  0.00  0.00     0.139 C 
ATOM     46  O   UNK d   0     -17.510  -8.246   8.176  0.00  0.00    -0.650 OA
BRANCH  45  47
ATOM     47  O   UNK d   0     -18.796  -6.544   8.956  0.00  0.00    -0.776 OA
ATOM     48  H   UNK d   0     -19.182  -6.950   9.824  0.00  0.00     0.167 HD
ENDBRANCH  45  47
ENDBRANCH  44  45
ENDBRANCH  43  44
ENDBRANCH  27  43
BRANCH  24  49
ATOM     49  C   UNK d   0     -18.527  -6.995   1.116  0.00  0.00     0.052 C 
BRANCH  49  50
ATOM     50  C   UNK d   0     -17.568  -6.219   1.982  0.00  0.00     0.115 C 
BRANCH  50  51
ATOM     51  C   UNK d   0     -16.770  -5.188   1.331  0.00  0.00     0.139 C 
ATOM     52  O   UNK d   0     -16.958  -4.837   0.142  0.00  0.00    -0.650 OA
BRANCH  51  53
ATOM     53  O   UNK d   0     -15.755  -4.559   2.036  0.00  0.00    -0.776 OA
ATOM     54  H   UNK d   0     -15.823  -4.526   3.038  0.00  0.00     0.167 HD
ENDBRANCH  51  53
ENDBRANCH  50  51
ENDBRANCH  49  50
ENDBRANCH  24  49
BRANCH  21  55
ATOM     55  C   UNK d   0     -20.482  -6.572  -1.239  0.00  0.00     0.151 C 
BRANCH  55  56
ATOM     56  C   UNK d   0     -20.132  -5.380  -2.026  0.00  0.00     0.143 C 
ATOM     57  O   UNK d   0     -20.830  -4.967  -2.973  0.00  0.00    -0.650 OA
BRANCH  56  58
ATOM     58  O   UNK d   0     -18.968  -4.694  -1.683  0.00  0.00    -0.776 OA
ATOM     59  H   UNK d   0     -18.732  -4.711  -0.675  0.00  0.00     0.167 HD
ENDBRANCH  56  58
ENDBRANCH  55  56
ENDBRANCH  21  55
BRANCH  18  60
ATOM     60  C   UNK d   0     -24.473  -2.984  -1.297  0.00  0.00     0.151 C 
BRANCH  60  61
ATOM     61  C   UNK d   0     -23.222  -2.217  -1.199  0.00  0.00     0.143 C 
ATOM     62  O   UNK d   0     -22.965  -1.312  -0.404  0.00  0.00    -0.650 OA
BRANCH  61  63
ATOM     63  O   UNK d   0     -22.220  -2.578  -2.132  0.00  0.00    -0.776 OA
ATOM     64  H   UNK d   0     -22.210  -2.189  -3.059  0.00  0.00     0.167 HD
ENDBRANCH  61  63
ENDBRANCH  60  61
ENDBRANCH  18  60
BRANCH  14  65
ATOM     65  C   UNK d   0     -26.654  -1.873   0.497  0.00  0.00     0.052 C 
BRANCH  65  66
ATOM     66  C   UNK d   0     -26.158  -0.508   0.817  0.00  0.00     0.115 C 
BRANCH  66  67
ATOM     67  C   UNK d   0     -26.984   0.389   1.577  0.00  0.00     0.139 C 
ATOM     68  O   UNK d   0     -27.134   0.168   2.835  0.00  0.00    -0.650 OA
BRANCH  67  69
ATOM     69  O   UNK d   0     -27.672   1.511   1.117  0.00  0.00    -0.776 OA
ATOM     70  H   UNK d   0     -28.529   1.754   1.634  0.00  0.00     0.167 HD
ENDBRANCH  67  69
ENDBRANCH  66  67
ENDBRANCH  65  66
ENDBRANCH  14  65
ENDBRANCH   6   7
ENDBRANCH   5   6
ENDBRANCH   2   5
TORSDOF 28
ENDMDL
MODEL 6
REMARK VINA RESULT:      -9.2      2.037      8.037
REMARK  28 active torsions:
REMARK  status: ('A' for Active; 'I' for Inactive)
REMARK    1  A    between atoms: C_2  and  O_3 
REMARK    2  A    between atoms: C_2  and  C_4 
REMARK    3  A    between atoms: C_4  and  C_5 
REMARK    4  A    between atoms: C_5  and  C_6 
REMARK    5  A    between atoms: C_7  and  C_8 
REMARK    6  A    between atoms: C_8  and  C_9 
REMARK    7  A    between atoms: C_9  and  O_11 
REMARK    8  A    between atoms: C_28  and  C_29 
REMARK    9  A    between atoms: C_29  and  C_30 
REMARK   10  A    between atoms: C_30  and  O_32 
REMARK   11  A    between atoms: C_33  and  C_34 
REMARK   12  A    between atoms: C_34  and  C_35 
REMARK   13  A    between atoms: C_35  and  C_36 
REMARK   14  A    between atoms: C_36  and  O_38 
REMARK   15  A    between atoms: C_39  and  C_40 
REMARK   16  A    between atoms: C_40  and  C_41 
REMARK   17  A    between atoms: C_41  and  C_42 
REMARK   18  A    between atoms: C_42  and  O_44 
REMARK   19  A    between atoms: C_45  and  C_46 
REMARK   20  A    between atoms: C_46  and  C_47 
REMARK   21  A    between atoms: C_47  and  O_49 
REMARK   22  A    between atoms: C_50  and  C_51 
REMARK   23  A    between atoms: C_51  and  C_52 
REMARK   24  A    between atoms: C_52  and  O_54 
REMARK   25  A    between atoms: C_55  and  C_56 
REMARK   26  A    between atoms: C_56  and  C_57 
REMARK   27  A    between atoms: C_57  and  C_58 
REMARK   28  A    between atoms: C_58  and  O_60 
ROOT
ATOM      1  O   UNK d   0     -24.243  -1.617   6.777  0.00  0.00    -0.650 OA
ATOM      2  C   UNK d   0     -25.455  -1.833   6.550  0.00  0.00     0.139 C 
ENDROOT
BRANCH   2   3
ATOM      3  O   UNK d   0     -26.361  -1.736   7.579  0.00  0.00    -0.776 OA
ATOM      4  H   UNK d   0     -26.664  -2.564   8.095  0.00  0.00     0.167 HD
ENDBRANCH   2   3
BRANCH   2   5
ATOM      5  C   UNK d   0     -25.905  -2.194   5.176  0.00  0.00     0.115 C 
BRANCH   5   6
ATOM      6  C   UNK d   0     -25.997  -3.689   5.037  0.00  0.00     0.052 C 
BRANCH   6   7
ATOM      7  C   UNK d   0     -25.079  -4.231   3.967  0.00  0.00    -0.020 A 
ATOM      8  C   UNK d   0     -25.324  -4.343   2.687  0.00  0.00    -0.011 A 
ATOM      9  C   UNK d   0     -24.150  -4.924   2.058  0.00  0.00     0.067 A 
ATOM     10  C   UNK d   0     -23.768  -5.273   0.753  0.00  0.00     0.062 C 
ATOM     11  N   UNK d   0     -23.240  -5.140   3.031  0.00  0.00    -0.248 NA
ATOM     12  C   UNK d   0     -22.478  -5.568   0.298  0.00  0.00     0.041 A 
ATOM     13  N   UNK d   0     -21.493  -6.307   0.843  0.00  0.00    -0.355 N 
ATOM     14  C   UNK d   0     -22.032  -4.989  -0.904  0.00  0.00    -0.022 A 
ATOM     15  C   UNK d   0     -20.431  -6.205   0.022  0.00  0.00     0.042 A 
ATOM     16  H   UNK d   0     -21.554  -6.904   1.779  0.00  0.00     0.166 HD
ATOM     17  C   UNK d   0     -19.147  -6.778   0.115  0.00  0.00     0.062 C 
ATOM     18  C   UNK d   0     -20.731  -5.387  -1.085  0.00  0.00    -0.013 A 
ATOM     19  C   UNK d   0     -18.319  -6.865   1.205  0.00  0.00     0.067 A 
ATOM     20  N   UNK d   0     -18.846  -6.553   2.391  0.00  0.00    -0.248 NA
ATOM     21  C   UNK d   0     -16.927  -7.215   1.433  0.00  0.00    -0.011 A 
ATOM     22  C   UNK d   0     -17.899  -6.672   3.379  0.00  0.00     0.066 A 
ATOM     23  C   UNK d   0     -18.324  -6.414   4.674  0.00  0.00     0.062 C 
ATOM     24  C   UNK d   0     -16.687  -7.096   2.707  0.00  0.00    -0.020 A 
ATOM     25  C   UNK d   0     -19.627  -6.132   5.112  0.00  0.00     0.041 A 
ATOM     26  N   UNK d   0     -20.601  -5.385   4.578  0.00  0.00    -0.355 N 
ATOM     27  C   UNK d   0     -20.076  -6.717   6.316  0.00  0.00    -0.022 A 
ATOM     28  C   UNK d   0     -21.659  -5.477   5.400  0.00  0.00     0.042 A 
ATOM     29  H   UNK d   0     -20.535  -4.777   3.643  0.00  0.00     0.166 HD
ATOM     30  C   UNK d   0     -22.939  -4.906   5.324  0.00  0.00     0.062 C 
ATOM     31  C   UNK d   0     -21.361  -6.308   6.506  0.00  0.00    -0.013 A 
ATOM     32  C   UNK d   0     -23.737  -4.743   4.203  0.00  0.00     0.066 A 
BRANCH   8  33
ATOM     33  C   UNK d   0     -26.564  -3.960   1.987  0.00  0.00     0.151 C 
BRANCH  33  34
ATOM     34  C   UNK d   0     -26.433  -2.693   1.246  0.00  0.00     0.143 C 
ATOM     35  O   UNK d   0     -25.948  -1.688   1.785  0.00  0.00    -0.650 OA
BRANCH  34  36
ATOM     36  O   UNK d   0     -26.858  -2.627  -0.061  0.00  0.00    -0.776 OA
ATOM     37  H   UNK d   0     -27.855  -2.524  -0.295  0.00  0.00     0.167 HD
ENDBRANCH  34  36
ENDBRANCH  33  34
ENDBRANCH   8  33
BRANCH  31  38
ATOM     38  C   UNK d   0     -22.257  -6.693   7.659  0.00  0.00     0.151 C 
BRANCH  38  39
ATOM     39  C   UNK d   0     -22.076  -5.847   8.819  0.00  0.00     0.143 C 
ATOM     40  O   UNK d   0     -22.249  -4.616   8.778  0.00  0.00    -0.650 OA
BRANCH  39  41
ATOM     41  O   UNK d   0     -21.694  -6.418  10.032  0.00  0.00    -0.776 OA
ATOM     42  H   UNK d   0     -21.019  -7.188   9.988  0.00  0.00     0.167 HD
ENDBRANCH  39  41
ENDBRANCH  38  39
ENDBRANCH  31  38
BRANCH  27  43
ATOM     43  C   UNK d   0     -19.344  -7.626   7.271  0.00  0.00     0.052 C 
BRANCH  43  44
ATOM     44  C   UNK d   0     -18.531  -6.887   8.285  0.00  0.00     0.115 C 
BRANCH  44  45
ATOM     45  C   UNK d   0     -18.081  -7.892   9.282  0.00  0.00     0.139 C 
ATOM     46  O   UNK d   0     -17.276  -8.780   8.906  0.00  0.00    -0.650 OA
BRANCH  45  47
ATOM     47  O   UNK d   0     -18.504  -7.885  10.594  0.00  0.00    -0.776 OA
ATOM     48  H   UNK d   0     -18.230  -8.612  11.275  0.00  0.00     0.167 HD
ENDBRANCH  45  47
ENDBRANCH  44  45
ENDBRANCH  43  44
ENDBRANCH  27  43
BRANCH  24  49
ATOM     49  C   UNK d   0     -15.410  -7.389   3.382  0.00  0.00     0.052 C 
BRANCH  49  50
ATOM     50  C   UNK d   0     -14.594  -6.131   3.529  0.00  0.00     0.115 C 
BRANCH  50  51
ATOM     51  C   UNK d   0     -14.794  -5.347   4.740  0.00  0.00     0.139 C 
ATOM     52  O   UNK d   0     -15.405  -4.252   4.744  0.00  0.00    -0.650 OA
BRANCH  51  53
ATOM     53  O   UNK d   0     -14.294  -5.809   5.948  0.00  0.00    -0.776 OA
ATOM     54  H   UNK d   0     -13.687  -6.610   5.935  0.00  0.00     0.167 HD
ENDBRANCH  51  53
ENDBRANCH  50  51
ENDBRANCH  49  50
ENDBRANCH  24  49
BRANCH  21  55
ATOM     55  C   UNK d   0     -15.983  -7.635   0.356  0.00  0.00     0.151 C 
BRANCH  55  56
ATOM     56  C   UNK d   0     -15.749  -6.561  -0.622  0.00  0.00     0.143 C 
ATOM     57  O   UNK d   0     -16.146  -6.624  -1.802  0.00  0.00    -0.650 OA
BRANCH  56  58
ATOM     58  O   UNK d   0     -15.050  -5.434  -0.192  0.00  0.00    -0.776 OA
ATOM     59  H   UNK d   0     -15.632  -4.708   0.263  0.00  0.00     0.167 HD
ENDBRANCH  56  58
ENDBRANCH  55  56
ENDBRANCH  21  55
BRANCH  18  60
ATOM     60  C   UNK d   0     -19.859  -4.989  -2.249  0.00  0.00     0.151 C 
BRANCH  60  61
ATOM     61  C   UNK d   0     -20.226  -5.887  -3.354  0.00  0.00     0.143 C 
ATOM     62  O   UNK d   0     -20.901  -5.607  -4.346  0.00  0.00    -0.650 OA
BRANCH  61  63
ATOM     63  O   UNK d   0     -19.738  -7.211  -3.242  0.00  0.00    -0.776 OA
ATOM     64  H   UNK d   0     -20.338  -8.001  -3.401  0.00  0.00     0.167 HD
ENDBRANCH  61  63
ENDBRANCH  60  61
ENDBRANCH  18  60
BRANCH  14  65
ATOM     65  C   UNK d   0     -22.766  -4.177  -1.934  0.00  0.00     0.052 C 
BRANCH  65  66
ATOM     66  C   UNK d   0     -22.578  -2.712  -1.761  0.00  0.00     0.115 C 
BRANCH  66  67
ATOM     67  C   UNK d   0     -23.350  -2.007  -0.776  0.00  0.00     0.139 C 
ATOM     68  O   UNK d   0     -24.432  -1.421  -1.148  0.00  0.00    -0.650 OA
BRANCH  67  69
ATOM     69  O   UNK d   0     -23.073  -1.865   0.584  0.00  0.00    -0.776 OA
ATOM     70  H   UNK d   0     -23.861  -2.046   1.222  0.00  0.00     0.167 HD
ENDBRANCH  67  69
ENDBRANCH  66  67
ENDBRANCH  65  66
ENDBRANCH  14  65
ENDBRANCH   6   7
ENDBRANCH   5   6
ENDBRANCH   2   5
TORSDOF 28
ENDMDL
MODEL 7
REMARK VINA RESULT:      -9.1      4.973     11.631
REMARK  28 active torsions:
REMARK  status: ('A' for Active; 'I' for Inactive)
REMARK    1  A    between atoms: C_2  and  O_3 
REMARK    2  A    between atoms: C_2  and  C_4 
REMARK    3  A    between atoms: C_4  and  C_5 
REMARK    4  A    between atoms: C_5  and  C_6 
REMARK    5  A    between atoms: C_7  and  C_8 
REMARK    6  A    between atoms: C_8  and  C_9 
REMARK    7  A    between atoms: C_9  and  O_11 
REMARK    8  A    between atoms: C_28  and  C_29 
REMARK    9  A    between atoms: C_29  and  C_30 
REMARK   10  A    between atoms: C_30  and  O_32 
REMARK   11  A    between atoms: C_33  and  C_34 
REMARK   12  A    between atoms: C_34  and  C_35 
REMARK   13  A    between atoms: C_35  and  C_36 
REMARK   14  A    between atoms: C_36  and  O_38 
REMARK   15  A    between atoms: C_39  and  C_40 
REMARK   16  A    between atoms: C_40  and  C_41 
REMARK   17  A    between atoms: C_41  and  C_42 
REMARK   18  A    between atoms: C_42  and  O_44 
REMARK   19  A    between atoms: C_45  and  C_46 
REMARK   20  A    between atoms: C_46  and  C_47 
REMARK   21  A    between atoms: C_47  and  O_49 
REMARK   22  A    between atoms: C_50  and  C_51 
REMARK   23  A    between atoms: C_51  and  C_52 
REMARK   24  A    between atoms: C_52  and  O_54 
REMARK   25  A    between atoms: C_55  and  C_56 
REMARK   26  A    between atoms: C_56  and  C_57 
REMARK   27  A    between atoms: C_57  and  C_58 
REMARK   28  A    between atoms: C_58  and  O_60 
ROOT
ATOM      1  O   UNK d   0     -27.639   3.902   1.413  0.00  0.00    -0.650 OA
ATOM      2  C   UNK d   0     -26.476   3.573   1.734  0.00  0.00     0.139 C 
ENDROOT
BRANCH   2   3
ATOM      3  O   UNK d   0     -25.429   4.407   1.421  0.00  0.00    -0.776 OA
ATOM      4  H   UNK d   0     -25.525   5.126   0.701  0.00  0.00     0.167 HD
ENDBRANCH   2   3
BRANCH   2   5
ATOM      5  C   UNK d   0     -26.232   2.287   2.448  0.00  0.00     0.115 C 
BRANCH   5   6
ATOM      6  C   UNK d   0     -27.096   1.201   1.868  0.00  0.00     0.052 C 
BRANCH   6   7
ATOM      7  C   UNK d   0     -26.623  -0.182   2.245  0.00  0.00    -0.020 A 
ATOM      8  C   UNK d   0     -25.997  -1.046   1.487  0.00  0.00    -0.011 A 
ATOM      9  C   UNK d   0     -25.754  -2.240   2.280  0.00  0.00     0.067 A 
ATOM     10  C   UNK d   0     -25.131  -3.481   2.076  0.00  0.00     0.062 C 
ATOM     11  N   UNK d   0     -26.269  -2.017   3.507  0.00  0.00    -0.248 NA
ATOM     12  C   UNK d   0     -24.746  -4.406   3.053  0.00  0.00     0.041 A 
ATOM     13  N   UNK d   0     -25.379  -4.843   4.158  0.00  0.00    -0.355 N 
ATOM     14  C   UNK d   0     -23.469  -4.990   2.972  0.00  0.00    -0.022 A 
ATOM     15  C   UNK d   0     -24.533  -5.682   4.785  0.00  0.00     0.042 A 
ATOM     16  H   UNK d   0     -26.411  -4.578   4.479  0.00  0.00     0.166 HD
ATOM     17  C   UNK d   0     -24.691  -6.415   5.978  0.00  0.00     0.062 C 
ATOM     18  C   UNK d   0     -23.325  -5.800   4.071  0.00  0.00    -0.013 A 
ATOM     19  C   UNK d   0     -25.201  -6.002   7.182  0.00  0.00     0.067 A 
ATOM     20  N   UNK d   0     -25.818  -4.818   7.204  0.00  0.00    -0.248 NA
ATOM     21  C   UNK d   0     -25.245  -6.532   8.535  0.00  0.00    -0.011 A 
ATOM     22  C   UNK d   0     -26.261  -4.534   8.473  0.00  0.00     0.066 A 
ATOM     23  C   UNK d   0     -26.957  -3.345   8.631  0.00  0.00     0.062 C 
ATOM     24  C   UNK d   0     -25.863  -5.666   9.286  0.00  0.00    -0.020 A 
ATOM     25  C   UNK d   0     -27.344  -2.436   7.635  0.00  0.00     0.041 A 
ATOM     26  N   UNK d   0     -26.709  -1.990   6.544  0.00  0.00    -0.355 N 
ATOM     27  C   UNK d   0     -28.628  -1.853   7.714  0.00  0.00    -0.022 A 
ATOM     28  C   UNK d   0     -27.547  -1.145   5.922  0.00  0.00     0.042 A 
ATOM     29  H   UNK d   0     -25.669  -2.249   6.229  0.00  0.00     0.166 HD
ATOM     30  C   UNK d   0     -27.400  -0.403   4.740  0.00  0.00     0.062 C 
ATOM     31  C   UNK d   0     -28.765  -1.036   6.635  0.00  0.00    -0.013 A 
ATOM     32  C   UNK d   0     -26.806  -0.797   3.551  0.00  0.00     0.066 A 
BRANCH   8  33
ATOM     33  C   UNK d   0     -25.605  -0.865   0.077  0.00  0.00     0.151 C 
BRANCH  33  34
ATOM     34  C   UNK d   0     -24.441  -1.687  -0.301  0.00  0.00     0.143 C 
ATOM     35  O   UNK d   0     -24.574  -2.682  -1.027  0.00  0.00    -0.650 OA
BRANCH  34  36
ATOM     36  O   UNK d   0     -23.192  -1.342   0.161  0.00  0.00    -0.776 OA
ATOM     37  H   UNK d   0     -22.482  -0.941  -0.467  0.00  0.00     0.167 HD
ENDBRANCH  34  36
ENDBRANCH  33  34
ENDBRANCH   8  33
BRANCH  31  38
ATOM     38  C   UNK d   0     -29.983  -0.211   6.290  0.00  0.00     0.151 C 
BRANCH  38  39
ATOM     39  C   UNK d   0     -30.082   1.000   7.078  0.00  0.00     0.143 C 
ATOM     40  O   UNK d   0     -29.096   1.718   7.321  0.00  0.00    -0.650 OA
BRANCH  39  41
ATOM     41  O   UNK d   0     -31.320   1.387   7.588  0.00  0.00    -0.776 OA
ATOM     42  H   UNK d   0     -32.061   1.578   6.906  0.00  0.00     0.167 HD
ENDBRANCH  39  41
ENDBRANCH  38  39
ENDBRANCH  31  38
BRANCH  27  43
ATOM     43  C   UNK d   0     -29.702  -2.040   8.757  0.00  0.00     0.052 C 
BRANCH  43  44
ATOM     44  C   UNK d   0     -29.495  -1.200   9.975  0.00  0.00     0.115 C 
BRANCH  44  45
ATOM     45  C   UNK d   0     -29.474  -2.131  11.134  0.00  0.00     0.139 C 
ATOM     46  O   UNK d   0     -29.727  -3.343  10.924  0.00  0.00    -0.650 OA
BRANCH  45  47
ATOM     47  O   UNK d   0     -29.185  -1.720  12.417  0.00  0.00    -0.776 OA
ATOM     48  H   UNK d   0     -29.806  -1.909  13.220  0.00  0.00     0.167 HD
ENDBRANCH  45  47
ENDBRANCH  44  45
ENDBRANCH  43  44
ENDBRANCH  27  43
BRANCH  24  49
ATOM     49  C   UNK d   0     -26.162  -5.818  10.720  0.00  0.00     0.052 C 
BRANCH  49  50
ATOM     50  C   UNK d   0     -24.907  -5.658  11.538  0.00  0.00     0.115 C 
BRANCH  50  51
ATOM     51  C   UNK d   0     -24.293  -4.337  11.563  0.00  0.00     0.139 C 
ATOM     52  O   UNK d   0     -24.758  -3.388  12.238  0.00  0.00    -0.650 OA
BRANCH  51  53
ATOM     53  O   UNK d   0     -23.150  -4.097  10.816  0.00  0.00    -0.776 OA
ATOM     54  H   UNK d   0     -23.222  -4.127   9.814  0.00  0.00     0.167 HD
ENDBRANCH  51  53
ENDBRANCH  50  51
ENDBRANCH  49  50
ENDBRANCH  24  49
BRANCH  21  55
ATOM     55  C   UNK d   0     -24.668  -7.850   8.935  0.00  0.00     0.151 C 
BRANCH  55  56
ATOM     56  C   UNK d   0     -25.690  -8.907   8.984  0.00  0.00     0.143 C 
ATOM     57  O   UNK d   0     -26.668  -8.936   8.212  0.00  0.00    -0.650 OA
BRANCH  56  58
ATOM     58  O   UNK d   0     -25.542  -9.909   9.941  0.00  0.00    -0.776 OA
ATOM     59  H   UNK d   0     -24.596 -10.328   9.991  0.00  0.00     0.167 HD
ENDBRANCH  56  58
ENDBRANCH  55  56
ENDBRANCH  21  55
BRANCH  18  60
ATOM     60  C   UNK d   0     -22.097  -6.616   4.388  0.00  0.00     0.151 C 
BRANCH  60  61
ATOM     61  C   UNK d   0     -21.274  -5.780   5.275  0.00  0.00     0.143 C 
ATOM     62  O   UNK d   0     -21.553  -5.408   6.415  0.00  0.00    -0.650 OA
BRANCH  61  63
ATOM     63  O   UNK d   0     -20.030  -5.371   4.734  0.00  0.00    -0.776 OA
ATOM     64  H   UNK d   0     -19.169  -5.786   5.043  0.00  0.00     0.167 HD
ENDBRANCH  61  63
ENDBRANCH  60  61
ENDBRANCH  18  60
BRANCH  14  65
ATOM     65  C   UNK d   0     -22.424  -4.917   1.895  0.00  0.00     0.052 C 
BRANCH  65  66
ATOM     66  C   UNK d   0     -22.726  -5.793   0.731  0.00  0.00     0.115 C 
BRANCH  66  67
ATOM     67  C   UNK d   0     -22.339  -5.382  -0.589  0.00  0.00     0.139 C 
ATOM     68  O   UNK d   0     -22.324  -6.262  -1.526  0.00  0.00    -0.650 OA
BRANCH  67  69
ATOM     69  O   UNK d   0     -21.961  -4.107  -1.009  0.00  0.00    -0.776 OA
ATOM     70  H   UNK d   0     -22.476  -3.324  -0.581  0.00  0.00     0.167 HD
ENDBRANCH  67  69
ENDBRANCH  66  67
ENDBRANCH  65  66
ENDBRANCH  14  65
ENDBRANCH   6   7
ENDBRANCH   5   6
ENDBRANCH   2   5
TORSDOF 28
ENDMDL
MODEL 8
REMARK VINA RESULT:      -9.1      3.662     10.017
REMARK  28 active torsions:
REMARK  status: ('A' for Active; 'I' for Inactive)
REMARK    1  A    between atoms: C_2  and  O_3 
REMARK    2  A    between atoms: C_2  and  C_4 
REMARK    3  A    between atoms: C_4  and  C_5 
REMARK    4  A    between atoms: C_5  and  C_6 
REMARK    5  A    between atoms: C_7  and  C_8 
REMARK    6  A    between atoms: C_8  and  C_9 
REMARK    7  A    between atoms: C_9  and  O_11 
REMARK    8  A    between atoms: C_28  and  C_29 
REMARK    9  A    between atoms: C_29  and  C_30 
REMARK   10  A    between atoms: C_30  and  O_32 
REMARK   11  A    between atoms: C_33  and  C_34 
REMARK   12  A    between atoms: C_34  and  C_35 
REMARK   13  A    between atoms: C_35  and  C_36 
REMARK   14  A    between atoms: C_36  and  O_38 
REMARK   15  A    between atoms: C_39  and  C_40 
REMARK   16  A    between atoms: C_40  and  C_41 
REMARK   17  A    between atoms: C_41  and  C_42 
REMARK   18  A    between atoms: C_42  and  O_44 
REMARK   19  A    between atoms: C_45  and  C_46 
REMARK   20  A    between atoms: C_46  and  C_47 
REMARK   21  A    between atoms: C_47  and  O_49 
REMARK   22  A    between atoms: C_50  and  C_51 
REMARK   23  A    between atoms: C_51  and  C_52 
REMARK   24  A    between atoms: C_52  and  O_54 
REMARK   25  A    between atoms: C_55  and  C_56 
REMARK   26  A    between atoms: C_56  and  C_57 
REMARK   27  A    between atoms: C_57  and  C_58 
REMARK   28  A    between atoms: C_58  and  O_60 
ROOT
ATOM      1  O   UNK d   0     -22.879  -2.446  -1.540  0.00  0.00    -0.650 OA
ATOM      2  C   UNK d   0     -22.461  -3.576  -1.877  0.00  0.00     0.139 C 
ENDROOT
BRANCH   2   3
ATOM      3  O   UNK d   0     -21.733  -3.707  -3.035  0.00  0.00    -0.776 OA
ATOM      4  H   UNK d   0     -21.134  -4.520  -3.192  0.00  0.00     0.167 HD
ENDBRANCH   2   3
BRANCH   2   5
ATOM      5  C   UNK d   0     -22.754  -4.766  -1.029  0.00  0.00     0.115 C 
BRANCH   5   6
ATOM      6  C   UNK d   0     -24.196  -4.754  -0.599  0.00  0.00     0.052 C 
BRANCH   6   7
ATOM      7  C   UNK d   0     -24.369  -4.345   0.844  0.00  0.00    -0.020 A 
ATOM      8  C   UNK d   0     -25.275  -3.544   1.344  0.00  0.00    -0.011 A 
ATOM      9  C   UNK d   0     -25.040  -3.444   2.775  0.00  0.00     0.067 A 
ATOM     10  C   UNK d   0     -25.646  -2.787   3.857  0.00  0.00     0.062 C 
ATOM     11  N   UNK d   0     -23.966  -4.211   3.059  0.00  0.00    -0.248 NA
ATOM     12  C   UNK d   0     -25.442  -3.033   5.219  0.00  0.00     0.041 A 
ATOM     13  N   UNK d   0     -24.315  -3.264   5.919  0.00  0.00    -0.355 N 
ATOM     14  C   UNK d   0     -26.560  -3.124   6.069  0.00  0.00    -0.022 A 
ATOM     15  C   UNK d   0     -24.690  -3.508   7.190  0.00  0.00     0.042 A 
ATOM     16  H   UNK d   0     -23.275  -3.237   5.527  0.00  0.00     0.166 HD
ATOM     17  C   UNK d   0     -23.916  -3.805   8.329  0.00  0.00     0.062 C 
ATOM     18  C   UNK d   0     -26.090  -3.429   7.322  0.00  0.00    -0.013 A 
ATOM     19  C   UNK d   0     -22.863  -4.676   8.453  0.00  0.00     0.067 A 
ATOM     20  N   UNK d   0     -22.356  -5.176   7.324  0.00  0.00    -0.248 NA
ATOM     21  C   UNK d   0     -22.108  -5.252   9.553  0.00  0.00    -0.011 A 
ATOM     22  C   UNK d   0     -21.324  -6.038   7.606  0.00  0.00     0.066 A 
ATOM     23  C   UNK d   0     -20.679  -6.604   6.516  0.00  0.00     0.062 C 
ATOM     24  C   UNK d   0     -21.212  -6.052   9.051  0.00  0.00    -0.020 A 
ATOM     25  C   UNK d   0     -20.890  -6.334   5.155  0.00  0.00     0.041 A 
ATOM     26  N   UNK d   0     -22.011  -6.119   4.456  0.00  0.00    -0.355 N 
ATOM     27  C   UNK d   0     -19.767  -6.238   4.304  0.00  0.00    -0.022 A 
ATOM     28  C   UNK d   0     -21.641  -5.884   3.187  0.00  0.00     0.042 A 
ATOM     29  H   UNK d   0     -23.057  -6.157   4.849  0.00  0.00     0.166 HD
ATOM     30  C   UNK d   0     -22.401  -5.596   2.043  0.00  0.00     0.062 C 
ATOM     31  C   UNK d   0     -20.233  -5.953   3.057  0.00  0.00    -0.013 A 
ATOM     32  C   UNK d   0     -23.516  -4.781   1.940  0.00  0.00     0.066 A 
BRANCH   8  33
ATOM     33  C   UNK d   0     -26.349  -2.853   0.607  0.00  0.00     0.151 C 
BRANCH  33  34
ATOM     34  C   UNK d   0     -26.099  -1.407   0.458  0.00  0.00     0.143 C 
ATOM     35  O   UNK d   0     -25.471  -0.966  -0.515  0.00  0.00    -0.650 OA
BRANCH  34  36
ATOM     36  O   UNK d   0     -26.571  -0.539   1.416  0.00  0.00    -0.776 OA
ATOM     37  H   UNK d   0     -26.132   0.380   1.566  0.00  0.00     0.167 HD
ENDBRANCH  34  36
ENDBRANCH  33  34
ENDBRANCH   8  33
BRANCH  31  38
ATOM     38  C   UNK d   0     -19.395  -5.745   1.818  0.00  0.00     0.151 C 
BRANCH  38  39
ATOM     39  C   UNK d   0     -19.406  -6.891   0.934  0.00  0.00     0.143 C 
ATOM     40  O   UNK d   0     -19.937  -6.859  -0.190  0.00  0.00    -0.650 OA
BRANCH  39  41
ATOM     41  O   UNK d   0     -18.801  -8.079   1.343  0.00  0.00    -0.776 OA
ATOM     42  H   UNK d   0     -17.777  -8.104   1.333  0.00  0.00     0.167 HD
ENDBRANCH  39  41
ENDBRANCH  38  39
ENDBRANCH  31  38
BRANCH  27  43
ATOM     43  C   UNK d   0     -18.303  -6.406   4.626  0.00  0.00     0.052 C 
BRANCH  43  44
ATOM     44  C   UNK d   0     -17.590  -5.108   4.824  0.00  0.00     0.115 C 
BRANCH  44  45
ATOM     45  C   UNK d   0     -16.431  -5.392   5.711  0.00  0.00     0.139 C 
ATOM     46  O   UNK d   0     -16.493  -6.397   6.461  0.00  0.00    -0.650 OA
BRANCH  45  47
ATOM     47  O   UNK d   0     -15.300  -4.606   5.737  0.00  0.00    -0.776 OA
ATOM     48  H   UNK d   0     -14.390  -4.921   5.365  0.00  0.00     0.167 HD
ENDBRANCH  45  47
ENDBRANCH  44  45
ENDBRANCH  43  44
ENDBRANCH  27  43
BRANCH  24  49
ATOM     49  C   UNK d   0     -20.206  -6.814   9.809  0.00  0.00     0.052 C 
BRANCH  49  50
ATOM     50  C   UNK d   0     -18.900  -6.852   9.057  0.00  0.00     0.115 C 
BRANCH  50  51
ATOM     51  C   UNK d   0     -17.755  -7.436   9.742  0.00  0.00     0.139 C 
ATOM     52  O   UNK d   0     -17.161  -8.456   9.318  0.00  0.00    -0.650 OA
BRANCH  51  53
ATOM     53  O   UNK d   0     -17.288  -6.859  10.913  0.00  0.00    -0.776 OA
ATOM     54  H   UNK d   0     -17.842  -6.139  11.342  0.00  0.00     0.167 HD
ENDBRANCH  51  53
ENDBRANCH  50  51
ENDBRANCH  49  50
ENDBRANCH  24  49
BRANCH  21  55
ATOM     55  C   UNK d   0     -22.358  -4.940  10.992  0.00  0.00     0.151 C 
BRANCH  55  56
ATOM     56  C   UNK d   0     -23.534  -5.653  11.514  0.00  0.00     0.143 C 
ATOM     57  O   UNK d   0     -24.578  -5.068  11.864  0.00  0.00    -0.650 OA
BRANCH  56  58
ATOM     58  O   UNK d   0     -23.460  -7.041  11.614  0.00  0.00    -0.776 OA
ATOM     59  H   UNK d   0     -22.783  -7.392  12.316  0.00  0.00     0.167 HD
ENDBRANCH  56  58
ENDBRANCH  55  56
ENDBRANCH  21  55
BRANCH  18  60
ATOM     60  C   UNK d   0     -26.952  -3.628   8.544  0.00  0.00     0.151 C 
BRANCH  60  61
ATOM     61  C   UNK d   0     -27.144  -5.081   8.670  0.00  0.00     0.143 C 
ATOM     62  O   UNK d   0     -27.718  -5.826   7.875  0.00  0.00    -0.650 OA
BRANCH  61  63
ATOM     63  O   UNK d   0     -26.601  -5.661   9.842  0.00  0.00    -0.776 OA
ATOM     64  H   UNK d   0     -26.721  -6.639  10.040  0.00  0.00     0.167 HD
ENDBRANCH  61  63
ENDBRANCH  60  61
ENDBRANCH  18  60
BRANCH  14  65
ATOM     65  C   UNK d   0     -28.014  -2.851   5.810  0.00  0.00     0.052 C 
BRANCH  65  66
ATOM     66  C   UNK d   0     -28.428  -1.478   6.206  0.00  0.00     0.115 C 
BRANCH  66  67
ATOM     67  C   UNK d   0     -28.575  -0.462   5.202  0.00  0.00     0.139 C 
ATOM     68  O   UNK d   0     -29.554   0.365   5.306  0.00  0.00    -0.650 OA
BRANCH  67  69
ATOM     69  O   UNK d   0     -27.770  -0.243   4.085  0.00  0.00    -0.776 OA
ATOM     70  H   UNK d   0     -27.552  -1.076   3.519  0.00  0.00     0.167 HD
ENDBRANCH  67  69
ENDBRANCH  66  67
ENDBRANCH  65  66
ENDBRANCH  14  65
ENDBRANCH   6   7
ENDBRANCH   5   6
ENDBRANCH   2   5
TORSDOF 28
ENDMDL
MODEL 9
REMARK VINA RESULT:      -9.0      2.116      4.574
REMARK  28 active torsions:
REMARK  status: ('A' for Active; 'I' for Inactive)
REMARK    1  A    between atoms: C_2  and  O_3 
REMARK    2  A    between atoms: C_2  and  C_4 
REMARK    3  A    between atoms: C_4  and  C_5 
REMARK    4  A    between atoms: C_5  and  C_6 
REMARK    5  A    between atoms: C_7  and  C_8 
REMARK    6  A    between atoms: C_8  and  C_9 
REMARK    7  A    between atoms: C_9  and  O_11 
REMARK    8  A    between atoms: C_28  and  C_29 
REMARK    9  A    between atoms: C_29  and  C_30 
REMARK   10  A    between atoms: C_30  and  O_32 
REMARK   11  A    between atoms: C_33  and  C_34 
REMARK   12  A    between atoms: C_34  and  C_35 
REMARK   13  A    between atoms: C_35  and  C_36 
REMARK   14  A    between atoms: C_36  and  O_38 
REMARK   15  A    between atoms: C_39  and  C_40 
REMARK   16  A    between atoms: C_40  and  C_41 
REMARK   17  A    between atoms: C_41  and  C_42 
REMARK   18  A    between atoms: C_42  and  O_44 
REMARK   19  A    between atoms: C_45  and  C_46 
REMARK   20  A    between atoms: C_46  and  C_47 
REMARK   21  A    between atoms: C_47  and  O_49 
REMARK   22  A    between atoms: C_50  and  C_51 
REMARK   23  A    between atoms: C_51  and  C_52 
REMARK   24  A    between atoms: C_52  and  O_54 
REMARK   25  A    between atoms: C_55  and  C_56 
REMARK   26  A    between atoms: C_56  and  C_57 
REMARK   27  A    between atoms: C_57  and  C_58 
REMARK   28  A    between atoms: C_58  and  O_60 
ROOT
ATOM      1  O   UNK d   0     -26.981  -7.034   0.643  0.00  0.00    -0.650 OA
ATOM      2  C   UNK d   0     -26.006  -6.981  -0.138  0.00  0.00     0.139 C 
ENDROOT
BRANCH   2   3
ATOM      3  O   UNK d   0     -25.100  -8.014  -0.154  0.00  0.00    -0.776 OA
ATOM      4  H   UNK d   0     -24.903  -8.530  -1.015  0.00  0.00     0.167 HD
ENDBRANCH   2   3
BRANCH   2   5
ATOM      5  C   UNK d   0     -25.831  -5.807  -1.039  0.00  0.00     0.115 C 
BRANCH   5   6
ATOM      6  C   UNK d   0     -25.610  -4.560  -0.227  0.00  0.00     0.052 C 
BRANCH   6   7
ATOM      7  C   UNK d   0     -24.526  -4.726   0.810  0.00  0.00    -0.020 A 
ATOM      8  C   UNK d   0     -24.627  -4.560   2.104  0.00  0.00    -0.011 A 
ATOM      9  C   UNK d   0     -23.323  -4.823   2.690  0.00  0.00     0.067 A 
ATOM     10  C   UNK d   0     -22.778  -4.840   3.983  0.00  0.00     0.062 C 
ATOM     11  N   UNK d   0     -22.485  -5.137   1.679  0.00  0.00    -0.248 NA
ATOM     12  C   UNK d   0     -21.556  -5.392   4.381  0.00  0.00     0.041 A 
ATOM     13  N   UNK d   0     -20.337  -5.352   3.809  0.00  0.00    -0.355 N 
ATOM     14  C   UNK d   0     -21.513  -6.186   5.541  0.00  0.00    -0.022 A 
ATOM     15  C   UNK d   0     -19.525  -6.107   4.572  0.00  0.00     0.042 A 
ATOM     16  H   UNK d   0     -20.053  -4.786   2.895  0.00  0.00     0.166 HD
ATOM     17  C   UNK d   0     -18.155  -6.404   4.431  0.00  0.00     0.062 C 
ATOM     18  C   UNK d   0     -20.227  -6.647   5.668  0.00  0.00    -0.013 A 
ATOM     19  C   UNK d   0     -17.462  -6.766   3.304  0.00  0.00     0.067 A 
ATOM     20  N   UNK d   0     -18.098  -6.639   2.137  0.00  0.00    -0.248 NA
ATOM     21  C   UNK d   0     -16.140  -7.297   3.016  0.00  0.00    -0.011 A 
ATOM     22  C   UNK d   0     -17.290  -7.051   1.106  0.00  0.00     0.066 A 
ATOM     23  C   UNK d   0     -17.815  -6.938  -0.173  0.00  0.00     0.062 C 
ATOM     24  C   UNK d   0     -16.047  -7.466   1.728  0.00  0.00    -0.020 A 
ATOM     25  C   UNK d   0     -19.040  -6.368  -0.552  0.00  0.00     0.041 A 
ATOM     26  N   UNK d   0     -20.254  -6.420   0.008  0.00  0.00    -0.355 N 
ATOM     27  C   UNK d   0     -19.081  -5.567  -1.714  0.00  0.00    -0.022 A 
ATOM     28  C   UNK d   0     -21.069  -5.675  -0.756  0.00  0.00     0.042 A 
ATOM     29  H   UNK d   0     -20.541  -6.998   0.921  0.00  0.00     0.166 HD
ATOM     30  C   UNK d   0     -22.435  -5.379  -0.633  0.00  0.00     0.062 C 
ATOM     31  C   UNK d   0     -20.360  -5.124  -1.850  0.00  0.00    -0.013 A 
ATOM     32  C   UNK d   0     -23.148  -5.097   0.522  0.00  0.00     0.066 A 
BRANCH   8  33
ATOM     33  C   UNK d   0     -25.835  -4.170   2.855  0.00  0.00     0.151 C 
BRANCH  33  34
ATOM     34  C   UNK d   0     -25.889  -2.725   3.137  0.00  0.00     0.143 C 
ATOM     35  O   UNK d   0     -26.276  -1.922   2.276  0.00  0.00    -0.650 OA
BRANCH  34  36
ATOM     36  O   UNK d   0     -25.504  -2.263   4.375  0.00  0.00    -0.776 OA
ATOM     37  H   UNK d   0     -25.059  -1.342   4.486  0.00  0.00     0.167 HD
ENDBRANCH  34  36
ENDBRANCH  33  34
ENDBRANCH   8  33
BRANCH  31  38
ATOM     38  C   UNK d   0     -20.879  -4.221  -2.945  0.00  0.00     0.151 C 
BRANCH  38  39
ATOM     39  C   UNK d   0     -21.281  -4.948  -4.130  0.00  0.00     0.143 C 
ATOM     40  O   UNK d   0     -20.616  -4.927  -5.181  0.00  0.00    -0.650 OA
BRANCH  39  41
ATOM     41  O   UNK d   0     -22.452  -5.705  -4.106  0.00  0.00    -0.776 OA
ATOM     42  H   UNK d   0     -22.364  -6.683  -3.816  0.00  0.00     0.167 HD
ENDBRANCH  39  41
ENDBRANCH  38  39
ENDBRANCH  31  38
BRANCH  27  43
ATOM     43  C   UNK d   0     -17.974  -5.219  -2.678  0.00  0.00     0.052 C 
BRANCH  43  44
ATOM     44  C   UNK d   0     -17.478  -6.394  -3.457  0.00  0.00     0.115 C 
BRANCH  44  45
ATOM     45  C   UNK d   0     -16.042  -6.137  -3.744  0.00  0.00     0.139 C 
ATOM     46  O   UNK d   0     -15.420  -5.348  -2.991  0.00  0.00    -0.650 OA
BRANCH  45  47
ATOM     47  O   UNK d   0     -15.372  -6.731  -4.792  0.00  0.00    -0.776 OA
ATOM     48  H   UNK d   0     -14.343  -6.819  -4.821  0.00  0.00     0.167 HD
ENDBRANCH  45  47
ENDBRANCH  44  45
ENDBRANCH  43  44
ENDBRANCH  27  43
BRANCH  24  49
ATOM     49  C   UNK d   0     -14.863  -7.951   0.999  0.00  0.00     0.052 C 
BRANCH  49  50
ATOM     50  C   UNK d   0     -14.694  -9.435   1.199  0.00  0.00     0.115 C 
BRANCH  50  51
ATOM     51  C   UNK d   0     -15.837 -10.282   0.885  0.00  0.00     0.139 C 
ATOM     52  O   UNK d   0     -16.440 -10.225  -0.213  0.00  0.00    -0.650 OA
BRANCH  51  53
ATOM     53  O   UNK d   0     -16.294 -11.194   1.824  0.00  0.00    -0.776 OA
ATOM     54  H   UNK d   0     -16.931 -11.909   1.520  0.00  0.00     0.167 HD
ENDBRANCH  51  53
ENDBRANCH  50  51
ENDBRANCH  49  50
ENDBRANCH  24  49
BRANCH  21  55
ATOM     55  C   UNK d   0     -15.107  -7.577   4.056  0.00  0.00     0.151 C 
BRANCH  55  56
ATOM     56  C   UNK d   0     -14.595  -6.342   4.670  0.00  0.00     0.143 C 
ATOM     57  O   UNK d   0     -14.799  -6.048   5.864  0.00  0.00    -0.650 OA
BRANCH  56  58
ATOM     58  O   UNK d   0     -13.852  -5.478   3.868  0.00  0.00    -0.776 OA
ATOM     59  H   UNK d   0     -14.154  -4.487   3.897  0.00  0.00     0.167 HD
ENDBRANCH  56  58
ENDBRANCH  55  56
ENDBRANCH  21  55
BRANCH  18  60
ATOM     60  C   UNK d   0     -19.736  -7.547   6.774  0.00  0.00     0.151 C 
BRANCH  60  61
ATOM     61  C   UNK d   0     -19.071  -6.666   7.747  0.00  0.00     0.143 C 
ATOM     62  O   UNK d   0     -17.887  -6.328   7.754  0.00  0.00    -0.650 OA
BRANCH  61  63
ATOM     63  O   UNK d   0     -19.907  -6.165   8.774  0.00  0.00    -0.776 OA
ATOM     64  H   UNK d   0     -19.569  -6.068   9.715  0.00  0.00     0.167 HD
ENDBRANCH  61  63
ENDBRANCH  60  61
ENDBRANCH  18  60
BRANCH  14  65
ATOM     65  C   UNK d   0     -22.562  -6.459   6.582  0.00  0.00     0.052 C 
BRANCH  65  66
ATOM     66  C   UNK d   0     -23.460  -7.588   6.221  0.00  0.00     0.115 C 
BRANCH  66  67
ATOM     67  C   UNK d   0     -24.704  -7.759   6.917  0.00  0.00     0.139 C 
ATOM     68  O   UNK d   0     -25.103  -8.954   7.177  0.00  0.00    -0.650 OA
BRANCH  67  69
ATOM     69  O   UNK d   0     -25.573  -6.766   7.367  0.00  0.00    -0.776 OA
ATOM     70  H   UNK d   0     -25.769  -6.767   8.379  0.00  0.00     0.167 HD
ENDBRANCH  67  69
ENDBRANCH  66  67
ENDBRANCH  65  66
ENDBRANCH  14  65
ENDBRANCH   6   7
ENDBRANCH   5   6
ENDBRANCH   2   5
TORSDOF 28
ENDMDL
MODEL 10
REMARK VINA RESULT:      -9.0      3.309      9.464
REMARK  28 active torsions:
REMARK  status: ('A' for Active; 'I' for Inactive)
REMARK    1  A    between atoms: C_2  and  O_3 
REMARK    2  A    between atoms: C_2  and  C_4 
REMARK    3  A    between atoms: C_4  and  C_5 
REMARK    4  A    between atoms: C_5  and  C_6 
REMARK    5  A    between atoms: C_7  and  C_8 
REMARK    6  A    between atoms: C_8  and  C_9 
REMARK    7  A    between atoms: C_9  and  O_11 
REMARK    8  A    between atoms: C_28  and  C_29 
REMARK    9  A    between atoms: C_29  and  C_30 
REMARK   10  A    between atoms: C_30  and  O_32 
REMARK   11  A    between atoms: C_33  and  C_34 
REMARK   12  A    between atoms: C_34  and  C_35 
REMARK   13  A    between atoms: C_35  and  C_36 
REMARK   14  A    between atoms: C_36  and  O_38 
REMARK   15  A    between atoms: C_39  and  C_40 
REMARK   16  A    between atoms: C_40  and  C_41 
REMARK   17  A    between atoms: C_41  and  C_42 
REMARK   18  A    between atoms: C_42  and  O_44 
REMARK   19  A    between atoms: C_45  and  C_46 
REMARK   20  A    between atoms: C_46  and  C_47 
REMARK   21  A    between atoms: C_47  and  O_49 
REMARK   22  A    between atoms: C_50  and  C_51 
REMARK   23  A    between atoms: C_51  and  C_52 
REMARK   24  A    between atoms: C_52  and  O_54 
REMARK   25  A    between atoms: C_55  and  C_56 
REMARK   26  A    between atoms: C_56  and  C_57 
REMARK   27  A    between atoms: C_57  and  C_58 
REMARK   28  A    between atoms: C_58  and  O_60 
ROOT
ATOM      1  O   UNK d   0     -20.588  -4.357  -1.925  0.00  0.00    -0.650 OA
ATOM      2  C   UNK d   0     -21.306  -5.122  -1.243  0.00  0.00     0.139 C 
ENDROOT
BRANCH   2   3
ATOM      3  O   UNK d   0     -21.174  -6.482  -1.393  0.00  0.00    -0.776 OA
ATOM      4  H   UNK d   0     -21.223  -7.109  -0.588  0.00  0.00     0.167 HD
ENDBRANCH   2   3
BRANCH   2   5
ATOM      5  C   UNK d   0     -22.294  -4.560  -0.279  0.00  0.00     0.115 C 
BRANCH   5   6
ATOM      6  C   UNK d   0     -23.045  -5.672   0.401  0.00  0.00     0.052 C 
BRANCH   6   7
ATOM      7  C   UNK d   0     -23.117  -5.494   1.898  0.00  0.00    -0.020 A 
ATOM      8  C   UNK d   0     -24.132  -5.065   2.603  0.00  0.00    -0.011 A 
ATOM      9  C   UNK d   0     -23.731  -5.054   4.000  0.00  0.00     0.067 A 
ATOM     10  C   UNK d   0     -24.336  -4.733   5.225  0.00  0.00     0.062 C 
ATOM     11  N   UNK d   0     -22.453  -5.487   4.054  0.00  0.00    -0.248 NA
ATOM     12  C   UNK d   0     -23.876  -5.053   6.507  0.00  0.00     0.041 A 
ATOM     13  N   UNK d   0     -22.641  -5.007   7.043  0.00  0.00    -0.355 N 
ATOM     14  C   UNK d   0     -24.785  -5.569   7.448  0.00  0.00    -0.022 A 
ATOM     15  C   UNK d   0     -22.742  -5.489   8.296  0.00  0.00     0.042 A 
ATOM     16  H   UNK d   0     -21.720  -4.623   6.551  0.00  0.00     0.166 HD
ATOM     17  C   UNK d   0     -21.759  -5.660   9.291  0.00  0.00     0.062 C 
ATOM     18  C   UNK d   0     -24.072  -5.852   8.586  0.00  0.00    -0.013 A 
ATOM     19  C   UNK d   0     -20.495  -6.180   9.174  0.00  0.00     0.067 A 
ATOM     20  N   UNK d   0     -20.035  -6.377   7.936  0.00  0.00    -0.248 NA
ATOM     21  C   UNK d   0     -19.456  -6.617  10.091  0.00  0.00    -0.011 A 
ATOM     22  C   UNK d   0     -18.771  -6.912   7.977  0.00  0.00     0.066 A 
ATOM     23  C   UNK d   0     -18.155  -7.134   6.754  0.00  0.00     0.062 C 
ATOM     24  C   UNK d   0     -18.452  -7.048   9.385  0.00  0.00    -0.020 A 
ATOM     25  C   UNK d   0     -18.629  -6.794   5.478  0.00  0.00     0.041 A 
ATOM     26  N   UNK d   0     -19.853  -6.853   4.941  0.00  0.00    -0.355 N 
ATOM     27  C   UNK d   0     -17.716  -6.271   4.536  0.00  0.00    -0.022 A 
ATOM     28  C   UNK d   0     -19.753  -6.382   3.688  0.00  0.00     0.042 A 
ATOM     29  H   UNK d   0     -20.776  -7.249   5.433  0.00  0.00     0.166 HD
ATOM     30  C   UNK d   0     -20.721  -6.214   2.685  0.00  0.00     0.062 C 
ATOM     31  C   UNK d   0     -18.419  -6.007   3.401  0.00  0.00    -0.013 A 
ATOM     32  C   UNK d   0     -22.026  -5.768   2.822  0.00  0.00     0.066 A 
BRANCH   8  33
ATOM     33  C   UNK d   0     -25.453  -4.654   2.093  0.00  0.00     0.151 C 
BRANCH  33  34
ATOM     34  C   UNK d   0     -25.505  -3.227   1.727  0.00  0.00     0.143 C 
ATOM     35  O   UNK d   0     -25.480  -2.874   0.540  0.00  0.00    -0.650 OA
BRANCH  34  36
ATOM     36  O   UNK d   0     -25.582  -2.278   2.720  0.00  0.00    -0.776 OA
ATOM     37  H   UNK d   0     -26.463  -1.787   2.923  0.00  0.00     0.167 HD
ENDBRANCH  34  36
ENDBRANCH  33  34
ENDBRANCH   8  33
BRANCH  31  38
ATOM     38  C   UNK d   0     -17.863  -5.421   2.124  0.00  0.00     0.151 C 
BRANCH  38  39
ATOM     39  C   UNK d   0     -17.978  -6.322   0.997  0.00  0.00     0.143 C 
ATOM     40  O   UNK d   0     -17.697  -7.531   1.080  0.00  0.00    -0.650 OA
BRANCH  39  41
ATOM     41  O   UNK d   0     -18.419  -5.832  -0.232  0.00  0.00    -0.776 OA
ATOM     42  H   UNK d   0     -19.431  -5.828  -0.391  0.00  0.00     0.167 HD
ENDBRANCH  39  41
ENDBRANCH  38  39
ENDBRANCH  31  38
BRANCH  27  43
ATOM     43  C   UNK d   0     -16.235  -6.022   4.673  0.00  0.00     0.052 C 
BRANCH  43  44
ATOM     44  C   UNK d   0     -15.434  -6.589   3.546  0.00  0.00     0.115 C 
BRANCH  44  45
ATOM     45  C   UNK d   0     -15.394  -8.060   3.752  0.00  0.00     0.139 C 
ATOM     46  O   UNK d   0     -14.836  -8.497   4.789  0.00  0.00    -0.650 OA
BRANCH  45  47
ATOM     47  O   UNK d   0     -15.945  -8.955   2.861  0.00  0.00    -0.776 OA
ATOM     48  H   UNK d   0     -15.599  -9.067   1.894  0.00  0.00     0.167 HD
ENDBRANCH  45  47
ENDBRANCH  44  45
ENDBRANCH  43  44
ENDBRANCH  27  43
BRANCH  24  49
ATOM     49  C   UNK d   0     -17.170  -7.548   9.912  0.00  0.00     0.052 C 
BRANCH  49  50
ATOM     50  C   UNK d   0     -17.130  -9.054   9.851  0.00  0.00     0.115 C 
BRANCH  50  51
ATOM     51  C   UNK d   0     -16.398  -9.742  10.905  0.00  0.00     0.139 C 
ATOM     52  O   UNK d   0     -16.730 -10.874  11.331  0.00  0.00    -0.650 OA
BRANCH  51  53
ATOM     53  O   UNK d   0     -15.287  -9.140  11.476  0.00  0.00    -0.776 OA
ATOM     54  H   UNK d   0     -14.910  -9.539  12.317  0.00  0.00     0.167 HD
ENDBRANCH  51  53
ENDBRANCH  50  51
ENDBRANCH  49  50
ENDBRANCH  24  49
BRANCH  21  55
ATOM     55  C   UNK d   0     -19.575  -6.553  11.578  0.00  0.00     0.151 C 
BRANCH  55  56
ATOM     56  C   UNK d   0     -20.700  -5.708  12.006  0.00  0.00     0.143 C 
ATOM     57  O   UNK d   0     -21.816  -6.174  12.309  0.00  0.00    -0.650 OA
BRANCH  56  58
ATOM     58  O   UNK d   0     -20.491  -4.332  12.070  0.00  0.00    -0.776 OA
ATOM     59  H   UNK d   0     -21.170  -3.762  11.534  0.00  0.00     0.167 HD
ENDBRANCH  56  58
ENDBRANCH  55  56
ENDBRANCH  21  55
BRANCH  18  60
ATOM     60  C   UNK d   0     -24.655  -6.434   9.850  0.00  0.00     0.151 C 
BRANCH  60  61
ATOM     61  C   UNK d   0     -24.293  -7.860   9.841  0.00  0.00     0.143 C 
ATOM     62  O   UNK d   0     -24.595  -8.697   8.990  0.00  0.00    -0.650 OA
BRANCH  61  63
ATOM     63  O   UNK d   0     -23.514  -8.290  10.942  0.00  0.00    -0.776 OA
ATOM     64  H   UNK d   0     -23.209  -7.642  11.646  0.00  0.00     0.167 HD
ENDBRANCH  61  63
ENDBRANCH  60  61
ENDBRANCH  18  60
BRANCH  14  65
ATOM     65  C   UNK d   0     -26.279  -5.722   7.387  0.00  0.00     0.052 C 
BRANCH  65  66
ATOM     66  C   UNK d   0     -27.006  -4.470   7.725  0.00  0.00     0.115 C 
BRANCH  66  67
ATOM     67  C   UNK d   0     -28.017  -4.487   8.745  0.00  0.00     0.139 C 
ATOM     68  O   UNK d   0     -28.005  -5.443   9.604  0.00  0.00    -0.650 OA
BRANCH  67  69
ATOM     69  O   UNK d   0     -29.051  -3.571   8.937  0.00  0.00    -0.776 OA
ATOM     70  H   UNK d   0     -29.018  -2.728   8.346  0.00  0.00     0.167 HD
ENDBRANCH  67  69
ENDBRANCH  66  67
ENDBRANCH  65  66
ENDBRANCH  14  65
ENDBRANCH   6   7
ENDBRANCH   5   6
ENDBRANCH   2   5
TORSDOF 28
ENDMDL
MODEL 11
REMARK VINA RESULT:      -9.0      4.814     11.391
REMARK  28 active torsions:
REMARK  status: ('A' for Active; 'I' for Inactive)
REMARK    1  A    between atoms: C_2  and  O_3 
REMARK    2  A    between atoms: C_2  and  C_4 
REMARK    3  A    between atoms: C_4  and  C_5 
REMARK    4  A    between atoms: C_5  and  C_6 
REMARK    5  A    between atoms: C_7  and  C_8 
REMARK    6  A    between atoms: C_8  and  C_9 
REMARK    7  A    between atoms: C_9  and  O_11 
REMARK    8  A    between atoms: C_28  and  C_29 
REMARK    9  A    between atoms: C_29  and  C_30 
REMARK   10  A    between atoms: C_30  and  O_32 
REMARK   11  A    between atoms: C_33  and  C_34 
REMARK   12  A    between atoms: C_34  and  C_35 
REMARK   13  A    between atoms: C_35  and  C_36 
REMARK   14  A    between atoms: C_36  and  O_38 
REMARK   15  A    between atoms: C_39  and  C_40 
REMARK   16  A    between atoms: C_40  and  C_41 
REMARK   17  A    between atoms: C_41  and  C_42 
REMARK   18  A    between atoms: C_42  and  O_44 
REMARK   19  A    between atoms: C_45  and  C_46 
REMARK   20  A    between atoms: C_46  and  C_47 
REMARK   21  A    between atoms: C_47  and  O_49 
REMARK   22  A    between atoms: C_50  and  C_51 
REMARK   23  A    between atoms: C_51  and  C_52 
REMARK   24  A    between atoms: C_52  and  O_54 
REMARK   25  A    between atoms: C_55  and  C_56 
REMARK   26  A    between atoms: C_56  and  C_57 
REMARK   27  A    between atoms: C_57  and  C_58 
REMARK   28  A    between atoms: C_58  and  O_60 
ROOT
ATOM      1  O   UNK d   0     -22.441  -3.046  -1.214  0.00  0.00    -0.650 OA
ATOM      2  C   UNK d   0     -23.677  -2.904  -1.075  0.00  0.00     0.139 C 
ENDROOT
BRANCH   2   3
ATOM      3  O   UNK d   0     -24.512  -3.956  -1.366  0.00  0.00    -0.776 OA
ATOM      4  H   UNK d   0     -24.140  -4.892  -1.539  0.00  0.00     0.167 HD
ENDBRANCH   2   3
BRANCH   2   5
ATOM      5  C   UNK d   0     -24.233  -1.606  -0.599  0.00  0.00     0.115 C 
BRANCH   5   6
ATOM      6  C   UNK d   0     -25.691  -1.759  -0.265  0.00  0.00     0.052 C 
BRANCH   6   7
ATOM      7  C   UNK d   0     -25.958  -1.688   1.220  0.00  0.00    -0.020 A 
ATOM      8  C   UNK d   0     -26.603  -0.755   1.872  0.00  0.00    -0.011 A 
ATOM      9  C   UNK d   0     -26.597  -1.111   3.281  0.00  0.00     0.067 A 
ATOM     10  C   UNK d   0     -27.115  -0.565   4.465  0.00  0.00     0.062 C 
ATOM     11  N   UNK d   0     -25.922  -2.274   3.397  0.00  0.00    -0.248 NA
ATOM     12  C   UNK d   0     -27.247  -1.201   5.705  0.00  0.00     0.041 A 
ATOM     13  N   UNK d   0     -26.409  -2.010   6.380  0.00  0.00    -0.355 N 
ATOM     14  C   UNK d   0     -28.456  -1.068   6.413  0.00  0.00    -0.022 A 
ATOM     15  C   UNK d   0     -27.057  -2.400   7.493  0.00  0.00     0.042 A 
ATOM     16  H   UNK d   0     -25.372  -2.284   6.084  0.00  0.00     0.166 HD
ATOM     17  C   UNK d   0     -26.643  -3.243   8.543  0.00  0.00     0.062 C 
ATOM     18  C   UNK d   0     -28.344  -1.830   7.549  0.00  0.00    -0.013 A 
ATOM     19  C   UNK d   0     -25.995  -4.451   8.476  0.00  0.00     0.067 A 
ATOM     20  N   UNK d   0     -25.505  -4.808   7.286  0.00  0.00    -0.248 NA
ATOM     21  C   UNK d   0     -25.688  -5.525   9.405  0.00  0.00    -0.011 A 
ATOM     22  C   UNK d   0     -24.902  -6.039   7.369  0.00  0.00     0.066 A 
ATOM     23  C   UNK d   0     -24.314  -6.517   6.207  0.00  0.00     0.062 C 
ATOM     24  C   UNK d   0     -25.052  -6.453   8.750  0.00  0.00    -0.020 A 
ATOM     25  C   UNK d   0     -24.181  -5.858   4.976  0.00  0.00     0.041 A 
ATOM     26  N   UNK d   0     -25.020  -5.065   4.298  0.00  0.00    -0.355 N 
ATOM     27  C   UNK d   0     -22.966  -5.988   4.268  0.00  0.00    -0.022 A 
ATOM     28  C   UNK d   0     -24.379  -4.682   3.182  0.00  0.00     0.042 A 
ATOM     29  H   UNK d   0     -26.065  -4.799   4.591  0.00  0.00     0.166 HD
ATOM     30  C   UNK d   0     -24.783  -3.851   2.125  0.00  0.00     0.062 C 
ATOM     31  C   UNK d   0     -23.083  -5.247   3.133  0.00  0.00    -0.013 A 
ATOM     32  C   UNK d   0     -25.512  -2.674   2.193  0.00  0.00     0.066 A 
BRANCH   8  33
ATOM     33  C   UNK d   0     -27.226   0.453   1.301  0.00  0.00     0.151 C 
BRANCH  33  34
ATOM     34  C   UNK d   0     -26.583   1.698   1.760  0.00  0.00     0.143 C 
ATOM     35  O   UNK d   0     -25.441   1.685   2.240  0.00  0.00    -0.650 OA
BRANCH  34  36
ATOM     36  O   UNK d   0     -27.264   2.889   1.653  0.00  0.00    -0.776 OA
ATOM     37  H   UNK d   0     -27.735   3.309   2.466  0.00  0.00     0.167 HD
ENDBRANCH  34  36
ENDBRANCH  33  34
ENDBRANCH   8  33
BRANCH  31  38
ATOM     38  C   UNK d   0     -22.024  -5.073   2.069  0.00  0.00     0.151 C 
BRANCH  38  39
ATOM     39  C   UNK d   0     -22.017  -6.149   1.102  0.00  0.00     0.143 C 
ATOM     40  O   UNK d   0     -22.724  -6.128   0.078  0.00  0.00    -0.650 OA
BRANCH  39  41
ATOM     41  O   UNK d   0     -21.193  -7.255   1.311  0.00  0.00    -0.776 OA
ATOM     42  H   UNK d   0     -21.653  -8.126   1.592  0.00  0.00     0.167 HD
ENDBRANCH  39  41
ENDBRANCH  38  39
ENDBRANCH  31  38
BRANCH  27  43
ATOM     43  C   UNK d   0     -21.730  -6.775   4.624  0.00  0.00     0.052 C 
BRANCH  43  44
ATOM     44  C   UNK d   0     -20.743  -5.994   5.429  0.00  0.00     0.115 C 
BRANCH  44  45
ATOM     45  C   UNK d   0     -19.469  -6.003   4.665  0.00  0.00     0.139 C 
ATOM     46  O   UNK d   0     -19.439  -6.621   3.572  0.00  0.00    -0.650 OA
BRANCH  45  47
ATOM     47  O   UNK d   0     -18.330  -5.361   5.103  0.00  0.00    -0.776 OA
ATOM     48  H   UNK d   0     -18.080  -4.403   4.810  0.00  0.00     0.167 HD
ENDBRANCH  45  47
ENDBRANCH  44  45
ENDBRANCH  43  44
ENDBRANCH  27  43
BRANCH  24  49
ATOM     49  C   UNK d   0     -24.518  -7.704   9.316  0.00  0.00     0.052 C 
BRANCH  49  50
ATOM     50  C   UNK d   0     -25.634  -8.688   9.558  0.00  0.00     0.115 C 
BRANCH  50  51
ATOM     51  C   UNK d   0     -26.696  -8.747   8.562  0.00  0.00     0.139 C 
ATOM     52  O   UNK d   0     -26.522  -9.223   7.415  0.00  0.00    -0.650 OA
BRANCH  51  53
ATOM     53  O   UNK d   0     -27.957  -8.261   8.874  0.00  0.00    -0.776 OA
ATOM     54  H   UNK d   0     -28.274  -7.429   8.408  0.00  0.00     0.167 HD
ENDBRANCH  51  53
ENDBRANCH  50  51
ENDBRANCH  49  50
ENDBRANCH  24  49
BRANCH  21  55
ATOM     55  C   UNK d   0     -26.058  -5.510  10.851  0.00  0.00     0.151 C 
BRANCH  55  56
ATOM     56  C   UNK d   0     -27.478  -5.183  11.053  0.00  0.00     0.143 C 
ATOM     57  O   UNK d   0     -28.395  -5.729  10.408  0.00  0.00    -0.650 OA
BRANCH  56  58
ATOM     58  O   UNK d   0     -27.793  -4.220  12.011  0.00  0.00    -0.776 OA
ATOM     59  H   UNK d   0     -26.983  -3.684  12.372  0.00  0.00     0.167 HD
ENDBRANCH  56  58
ENDBRANCH  55  56
ENDBRANCH  21  55
BRANCH  18  60
ATOM     60  C   UNK d   0     -29.418  -1.983   8.597  0.00  0.00     0.151 C 
BRANCH  60  61
ATOM     61  C   UNK d   0     -28.899  -1.328   9.807  0.00  0.00     0.143 C 
ATOM     62  O   UNK d   0     -28.159  -0.345   9.859  0.00  0.00    -0.650 OA
BRANCH  61  63
ATOM     63  O   UNK d   0     -29.308  -1.911  11.030  0.00  0.00    -0.776 OA
ATOM     64  H   UNK d   0     -30.107  -1.561  11.529  0.00  0.00     0.167 HD
ENDBRANCH  61  63
ENDBRANCH  60  61
ENDBRANCH  18  60
BRANCH  14  65
ATOM     65  C   UNK d   0     -29.658  -0.206   6.148  0.00  0.00     0.052 C 
BRANCH  65  66
ATOM     66  C   UNK d   0     -29.365   1.249   6.254  0.00  0.00     0.115 C 
BRANCH  66  67
ATOM     67  C   UNK d   0     -28.639   1.749   7.388  0.00  0.00     0.139 C 
ATOM     68  O   UNK d   0     -27.375   1.948   7.268  0.00  0.00    -0.650 OA
BRANCH  67  69
ATOM     69  O   UNK d   0     -29.140   2.059   8.652  0.00  0.00    -0.776 OA
ATOM     70  H   UNK d   0     -28.583   1.722   9.450  0.00  0.00     0.167 HD
ENDBRANCH  67  69
ENDBRANCH  66  67
ENDBRANCH  65  66
ENDBRANCH  14  65
ENDBRANCH   6   7
ENDBRANCH   5   6
ENDBRANCH   2   5
TORSDOF 28
ENDMDL
MODEL 12
REMARK VINA RESULT:      -8.9      1.861      5.138
REMARK  28 active torsions:
REMARK  status: ('A' for Active; 'I' for Inactive)
REMARK    1  A    between atoms: C_2  and  O_3 
REMARK    2  A    between atoms: C_2  and  C_4 
REMARK    3  A    between atoms: C_4  and  C_5 
REMARK    4  A    between atoms: C_5  and  C_6 
REMARK    5  A    between atoms: C_7  and  C_8 
REMARK    6  A    between atoms: C_8  and  C_9 
REMARK    7  A    between atoms: C_9  and  O_11 
REMARK    8  A    between atoms: C_28  and  C_29 
REMARK    9  A    between atoms: C_29  and  C_30 
REMARK   10  A    between atoms: C_30  and  O_32 
REMARK   11  A    between atoms: C_33  and  C_34 
REMARK   12  A    between atoms: C_34  and  C_35 
REMARK   13  A    between atoms: C_35  and  C_36 
REMARK   14  A    between atoms: C_36  and  O_38 
REMARK   15  A    between atoms: C_39  and  C_40 
REMARK   16  A    between atoms: C_40  and  C_41 
REMARK   17  A    between atoms: C_41  and  C_42 
REMARK   18  A    between atoms: C_42  and  O_44 
REMARK   19  A    between atoms: C_45  and  C_46 
REMARK   20  A    between atoms: C_46  and  C_47 
REMARK   21  A    between atoms: C_47  and  O_49 
REMARK   22  A    between atoms: C_50  and  C_51 
REMARK   23  A    between atoms: C_51  and  C_52 
REMARK   24  A    between atoms: C_52  and  O_54 
REMARK   25  A    between atoms: C_55  and  C_56 
REMARK   26  A    between atoms: C_56  and  C_57 
REMARK   27  A    between atoms: C_57  and  C_58 
REMARK   28  A    between atoms: C_58  and  O_60 
ROOT
ATOM      1  O   UNK d   0     -24.737  -4.094   6.928  0.00  0.00    -0.650 OA
ATOM      2  C   UNK d   0     -23.502  -3.971   7.082  0.00  0.00     0.139 C 
ENDROOT
BRANCH   2   3
ATOM      3  O   UNK d   0     -22.838  -2.963   6.425  0.00  0.00    -0.776 OA
ATOM      4  H   UNK d   0     -22.126  -2.404   6.900  0.00  0.00     0.167 HD
ENDBRANCH   2   3
BRANCH   2   5
ATOM      5  C   UNK d   0     -22.762  -4.911   7.971  0.00  0.00     0.115 C 
BRANCH   5   6
ATOM      6  C   UNK d   0     -22.557  -6.229   7.274  0.00  0.00     0.052 C 
BRANCH   6   7
ATOM      7  C   UNK d   0     -21.502  -6.159   6.197  0.00  0.00    -0.020 A 
ATOM      8  C   UNK d   0     -20.206  -6.271   6.340  0.00  0.00    -0.011 A 
ATOM      9  C   UNK d   0     -19.599  -6.129   5.027  0.00  0.00     0.067 A 
ATOM     10  C   UNK d   0     -18.297  -6.168   4.503  0.00  0.00     0.062 C 
ATOM     11  N   UNK d   0     -20.599  -5.927   4.143  0.00  0.00    -0.248 NA
ATOM     12  C   UNK d   0     -17.928  -6.286   3.159  0.00  0.00     0.041 A 
ATOM     13  N   UNK d   0     -18.416  -5.697   2.051  0.00  0.00    -0.355 N 
ATOM     14  C   UNK d   0     -16.915  -7.198   2.810  0.00  0.00    -0.022 A 
ATOM     15  C   UNK d   0     -17.743  -6.217   1.006  0.00  0.00     0.042 A 
ATOM     16  H   UNK d   0     -19.205  -4.915   2.009  0.00  0.00     0.166 HD
ATOM     17  C   UNK d   0     -17.854  -5.954  -0.374  0.00  0.00     0.062 C 
ATOM     18  C   UNK d   0     -16.794  -7.162   1.443  0.00  0.00    -0.013 A 
ATOM     19  C   UNK d   0     -18.984  -5.829  -1.140  0.00  0.00     0.067 A 
ATOM     20  N   UNK d   0     -20.149  -5.746  -0.491  0.00  0.00    -0.248 NA
ATOM     21  C   UNK d   0     -19.282  -5.772  -2.561  0.00  0.00    -0.011 A 
ATOM     22  C   UNK d   0     -21.186  -5.641  -1.385  0.00  0.00     0.066 A 
ATOM     23  C   UNK d   0     -22.456  -5.509  -0.843  0.00  0.00     0.062 C 
ATOM     24  C   UNK d   0     -20.572  -5.667  -2.698  0.00  0.00    -0.020 A 
ATOM     25  C   UNK d   0     -22.805  -5.379   0.510  0.00  0.00     0.041 A 
ATOM     26  N   UNK d   0     -22.330  -5.976   1.610  0.00  0.00    -0.355 N 
ATOM     27  C   UNK d   0     -23.818  -4.461   0.860  0.00  0.00    -0.022 A 
ATOM     28  C   UNK d   0     -23.005  -5.465   2.653  0.00  0.00     0.042 A 
ATOM     29  H   UNK d   0     -21.544  -6.769   1.650  0.00  0.00     0.166 HD
ATOM     30  C   UNK d   0     -22.912  -5.725   4.029  0.00  0.00     0.062 C 
ATOM     31  C   UNK d   0     -23.951  -4.508   2.214  0.00  0.00    -0.013 A 
ATOM     32  C   UNK d   0     -21.769  -5.935   4.784  0.00  0.00     0.066 A 
BRANCH   8  33
ATOM     33  C   UNK d   0     -19.471  -6.496   7.598  0.00  0.00     0.151 C 
BRANCH  33  34
ATOM     34  C   UNK d   0     -18.050  -6.822   7.379  0.00  0.00     0.143 C 
ATOM     35  O   UNK d   0     -17.703  -7.966   7.052  0.00  0.00    -0.650 OA
BRANCH  34  36
ATOM     36  O   UNK d   0     -17.100  -5.841   7.541  0.00  0.00    -0.776 OA
ATOM     37  H   UNK d   0     -16.186  -5.900   7.072  0.00  0.00     0.167 HD
ENDBRANCH  34  36
ENDBRANCH  33  34
ENDBRANCH   8  33
BRANCH  31  38
ATOM     38  C   UNK d   0     -24.908  -3.686   3.045  0.00  0.00     0.151 C 
BRANCH  38  39
ATOM     39  C   UNK d   0     -26.250  -4.231   3.060  0.00  0.00     0.143 C 
ATOM     40  O   UNK d   0     -27.174  -3.706   3.706  0.00  0.00    -0.650 OA
BRANCH  39  41
ATOM     41  O   UNK d   0     -26.530  -5.384   2.327  0.00  0.00    -0.776 OA
ATOM     42  H   UNK d   0     -26.010  -5.514   1.454  0.00  0.00     0.167 HD
ENDBRANCH  39  41
ENDBRANCH  38  39
ENDBRANCH  31  38
BRANCH  27  43
ATOM     43  C   UNK d   0     -24.646  -3.564  -0.025  0.00  0.00     0.052 C 
BRANCH  43  44
ATOM     44  C   UNK d   0     -24.274  -2.120   0.083  0.00  0.00     0.115 C 
BRANCH  44  45
ATOM     45  C   UNK d   0     -25.545  -1.363   0.221  0.00  0.00     0.139 C 
ATOM     46  O   UNK d   0     -25.513  -0.253   0.808  0.00  0.00    -0.650 OA
BRANCH  45  47
ATOM     47  O   UNK d   0     -26.747  -1.825  -0.271  0.00  0.00    -0.776 OA
ATOM     48  H   UNK d   0     -27.071  -2.796  -0.138  0.00  0.00     0.167 HD
ENDBRANCH  45  47
ENDBRANCH  44  45
ENDBRANCH  43  44
ENDBRANCH  27  43
BRANCH  24  49
ATOM     49  C   UNK d   0     -21.303  -5.540  -3.971  0.00  0.00     0.052 C 
BRANCH  49  50
ATOM     50  C   UNK d   0     -21.052  -4.188  -4.588  0.00  0.00     0.115 C 
BRANCH  50  51
ATOM     51  C   UNK d   0     -20.614  -4.162  -5.977  0.00  0.00     0.139 C 
ATOM     52  O   UNK d   0     -19.613  -4.798  -6.382  0.00  0.00    -0.650 OA
BRANCH  51  53
ATOM     53  O   UNK d   0     -21.317  -3.408  -6.904  0.00  0.00    -0.776 OA
ATOM     54  H   UNK d   0     -22.006  -3.872  -7.470  0.00  0.00     0.167 HD
ENDBRANCH  51  53
ENDBRANCH  50  51
ENDBRANCH  49  50
ENDBRANCH  24  49
BRANCH  21  55
ATOM     55  C   UNK d   0     -18.245  -5.825  -3.634  0.00  0.00     0.151 C 
BRANCH  55  56
ATOM     56  C   UNK d   0     -17.388  -7.014  -3.515  0.00  0.00     0.143 C 
ATOM     57  O   UNK d   0     -17.839  -8.176  -3.540  0.00  0.00    -0.650 OA
BRANCH  56  58
ATOM     58  O   UNK d   0     -16.016  -6.814  -3.369  0.00  0.00    -0.776 OA
ATOM     59  H   UNK d   0     -15.528  -7.535  -2.807  0.00  0.00     0.167 HD
ENDBRANCH  56  58
ENDBRANCH  55  56
ENDBRANCH  21  55
BRANCH  18  60
ATOM     60  C   UNK d   0     -15.826  -7.993   0.638  0.00  0.00     0.151 C 
BRANCH  60  61
ATOM     61  C   UNK d   0     -16.513  -9.266   0.369  0.00  0.00     0.143 C 
ATOM     62  O   UNK d   0     -16.451 -10.298   1.037  0.00  0.00    -0.650 OA
BRANCH  61  63
ATOM     63  O   UNK d   0     -17.327  -9.278  -0.789  0.00  0.00    -0.776 OA
ATOM     64  H   UNK d   0     -17.254  -8.554  -1.481  0.00  0.00     0.167 HD
ENDBRANCH  61  63
ENDBRANCH  60  61
ENDBRANCH  18  60
BRANCH  14  65
ATOM     65  C   UNK d   0     -15.995  -8.018   3.668  0.00  0.00     0.052 C 
BRANCH  65  66
ATOM     66  C   UNK d   0     -14.693  -7.348   3.932  0.00  0.00     0.115 C 
BRANCH  66  67
ATOM     67  C   UNK d   0     -14.671  -6.067   4.580  0.00  0.00     0.139 C 
ATOM     68  O   UNK d   0     -14.732  -6.027   5.863  0.00  0.00    -0.650 OA
BRANCH  67  69
ATOM     69  O   UNK d   0     -14.590  -4.810   3.982  0.00  0.00    -0.776 OA
ATOM     70  H   UNK d   0     -15.221  -4.652   3.183  0.00  0.00     0.167 HD
ENDBRANCH  67  69
ENDBRANCH  66  67
ENDBRANCH  65  66
ENDBRANCH  14  65
ENDBRANCH   6   7
ENDBRANCH   5   6
ENDBRANCH   2   5
TORSDOF 28
ENDMDL
MODEL 13
REMARK VINA RESULT:      -8.8      1.887      3.719
REMARK  28 active torsions:
REMARK  status: ('A' for Active; 'I' for Inactive)
REMARK    1  A    between atoms: C_2  and  O_3 
REMARK    2  A    between atoms: C_2  and  C_4 
REMARK    3  A    between atoms: C_4  and  C_5 
REMARK    4  A    between atoms: C_5  and  C_6 
REMARK    5  A    between atoms: C_7  and  C_8 
REMARK    6  A    between atoms: C_8  and  C_9 
REMARK    7  A    between atoms: C_9  and  O_11 
REMARK    8  A    between atoms: C_28  and  C_29 
REMARK    9  A    between atoms: C_29  and  C_30 
REMARK   10  A    between atoms: C_30  and  O_32 
REMARK   11  A    between atoms: C_33  and  C_34 
REMARK   12  A    between atoms: C_34  and  C_35 
REMARK   13  A    between atoms: C_35  and  C_36 
REMARK   14  A    between atoms: C_36  and  O_38 
REMARK   15  A    between atoms: C_39  and  C_40 
REMARK   16  A    between atoms: C_40  and  C_41 
REMARK   17  A    between atoms: C_41  and  C_42 
REMARK   18  A    between atoms: C_42  and  O_44 
REMARK   19  A    between atoms: C_45  and  C_46 
REMARK   20  A    between atoms: C_46  and  C_47 
REMARK   21  A    between atoms: C_47  and  O_49 
REMARK   22  A    between atoms: C_50  and  C_51 
REMARK   23  A    between atoms: C_51  and  C_52 
REMARK   24  A    between atoms: C_52  and  O_54 
REMARK   25  A    between atoms: C_55  and  C_56 
REMARK   26  A    between atoms: C_56  and  C_57 
REMARK   27  A    between atoms: C_57  and  C_58 
REMARK   28  A    between atoms: C_58  and  O_60 
ROOT
ATOM      1  O   UNK d   0     -26.530  -6.056  -1.832  0.00  0.00    -0.650 OA
ATOM      2  C   UNK d   0     -26.464  -6.011  -0.584  0.00  0.00     0.139 C 
ENDROOT
BRANCH   2   3
ATOM      3  O   UNK d   0     -27.029  -7.021   0.158  0.00  0.00    -0.776 OA
ATOM      4  H   UNK d   0     -27.755  -6.824   0.849  0.00  0.00     0.167 HD
ENDBRANCH   2   3
BRANCH   2   5
ATOM      5  C   UNK d   0     -25.777  -4.872   0.089  0.00  0.00     0.115 C 
BRANCH   5   6
ATOM      6  C   UNK d   0     -26.025  -4.921   1.572  0.00  0.00     0.052 C 
BRANCH   6   7
ATOM      7  C   UNK d   0     -24.750  -5.055   2.370  0.00  0.00    -0.020 A 
ATOM      8  C   UNK d   0     -24.588  -4.865   3.654  0.00  0.00    -0.011 A 
ATOM      9  C   UNK d   0     -23.188  -5.102   3.966  0.00  0.00     0.067 A 
ATOM     10  C   UNK d   0     -22.392  -5.088   5.122  0.00  0.00     0.062 C 
ATOM     11  N   UNK d   0     -22.569  -5.425   2.811  0.00  0.00    -0.248 NA
ATOM     12  C   UNK d   0     -21.106  -5.618   5.271  0.00  0.00     0.041 A 
ATOM     13  N   UNK d   0     -20.030  -5.575   4.463  0.00  0.00    -0.355 N 
ATOM     14  C   UNK d   0     -20.816  -6.390   6.411  0.00  0.00    -0.022 A 
ATOM     15  C   UNK d   0     -19.068  -6.307   5.056  0.00  0.00     0.042 A 
ATOM     16  H   UNK d   0     -19.946  -5.023   3.501  0.00  0.00     0.166 HD
ATOM     17  C   UNK d   0     -17.750  -6.590   4.644  0.00  0.00     0.062 C 
ATOM     18  C   UNK d   0     -19.524  -6.834   6.280  0.00  0.00    -0.013 A 
ATOM     19  C   UNK d   0     -17.296  -6.965   3.405  0.00  0.00     0.067 A 
ATOM     20  N   UNK d   0     -18.159  -6.868   2.390  0.00  0.00    -0.248 NA
ATOM     21  C   UNK d   0     -16.053  -7.487   2.862  0.00  0.00    -0.011 A 
ATOM     22  C   UNK d   0     -17.570  -7.290   1.223  0.00  0.00     0.066 A 
ATOM     23  C   UNK d   0     -18.346  -7.207   0.077  0.00  0.00     0.062 C 
ATOM     24  C   UNK d   0     -16.221  -7.679   1.586  0.00  0.00    -0.020 A 
ATOM     25  C   UNK d   0     -19.631  -6.659  -0.055  0.00  0.00     0.041 A 
ATOM     26  N   UNK d   0     -20.706  -6.714   0.742  0.00  0.00    -0.355 N 
ATOM     27  C   UNK d   0     -19.920  -5.881  -1.197  0.00  0.00    -0.022 A 
ATOM     28  C   UNK d   0     -21.669  -5.993   0.148  0.00  0.00     0.042 A 
ATOM     29  H   UNK d   0     -20.792  -7.278   1.703  0.00  0.00     0.166 HD
ATOM     30  C   UNK d   0     -22.987  -5.710   0.542  0.00  0.00     0.062 C 
ATOM     31  C   UNK d   0     -21.207  -5.454  -1.077  0.00  0.00    -0.013 A 
ATOM     32  C   UNK d   0     -23.454  -5.415   1.813  0.00  0.00     0.066 A 
BRANCH   8  33
ATOM     33  C   UNK d   0     -25.624  -4.476   4.628  0.00  0.00     0.151 C 
BRANCH  33  34
ATOM     34  C   UNK d   0     -25.790  -3.015   4.731  0.00  0.00     0.143 C 
ATOM     35  O   UNK d   0     -24.982  -2.326   5.371  0.00  0.00    -0.650 OA
BRANCH  34  36
ATOM     36  O   UNK d   0     -26.858  -2.411   4.109  0.00  0.00    -0.776 OA
ATOM     37  H   UNK d   0     -27.476  -1.763   4.617  0.00  0.00     0.167 HD
ENDBRANCH  34  36
ENDBRANCH  33  34
ENDBRANCH   8  33
BRANCH  31  38
ATOM     38  C   UNK d   0     -21.951  -4.578  -2.057  0.00  0.00     0.151 C 
BRANCH  38  39
ATOM     39  C   UNK d   0     -22.547  -5.329  -3.141  0.00  0.00     0.143 C 
ATOM     40  O   UNK d   0     -22.064  -5.340  -4.287  0.00  0.00    -0.650 OA
BRANCH  39  41
ATOM     41  O   UNK d   0     -23.703  -6.073  -2.907  0.00  0.00    -0.776 OA
ATOM     42  H   UNK d   0     -24.462  -5.600  -2.405  0.00  0.00     0.167 HD
ENDBRANCH  39  41
ENDBRANCH  38  39
ENDBRANCH  31  38
BRANCH  27  43
ATOM     43  C   UNK d   0     -19.037  -5.538  -2.371  0.00  0.00     0.052 C 
BRANCH  43  44
ATOM     44  C   UNK d   0     -17.706  -4.990  -1.969  0.00  0.00     0.115 C 
BRANCH  44  45
ATOM     45  C   UNK d   0     -16.751  -5.366  -3.044  0.00  0.00     0.139 C 
ATOM     46  O   UNK d   0     -17.038  -6.347  -3.774  0.00  0.00    -0.650 OA
BRANCH  45  47
ATOM     47  O   UNK d   0     -15.576  -4.684  -3.271  0.00  0.00    -0.776 OA
ATOM     48  H   UNK d   0     -15.549  -3.729  -3.665  0.00  0.00     0.167 HD
ENDBRANCH  45  47
ENDBRANCH  44  45
ENDBRANCH  43  44
ENDBRANCH  27  43
BRANCH  24  49
ATOM     49  C   UNK d   0     -15.202  -8.163   0.639  0.00  0.00     0.052 C 
BRANCH  49  50
ATOM     50  C   UNK d   0     -14.944  -7.129  -0.427  0.00  0.00     0.115 C 
BRANCH  50  51
ATOM     51  C   UNK d   0     -13.791  -6.258  -0.242  0.00  0.00     0.139 C 
ATOM     52  O   UNK d   0     -12.988  -6.392   0.711  0.00  0.00    -0.650 OA
BRANCH  51  53
ATOM     53  O   UNK d   0     -13.556  -5.230  -1.142  0.00  0.00    -0.776 OA
ATOM     54  H   UNK d   0     -13.318  -4.324  -0.779  0.00  0.00     0.167 HD
ENDBRANCH  51  53
ENDBRANCH  50  51
ENDBRANCH  49  50
ENDBRANCH  24  49
BRANCH  21  55
ATOM     55  C   UNK d   0     -14.826  -7.734   3.675  0.00  0.00     0.151 C 
BRANCH  55  56
ATOM     56  C   UNK d   0     -14.336  -6.508   4.322  0.00  0.00     0.143 C 
ATOM     57  O   UNK d   0     -13.680  -5.640   3.714  0.00  0.00    -0.650 OA
BRANCH  56  58
ATOM     58  O   UNK d   0     -14.627  -6.325   5.673  0.00  0.00    -0.776 OA
ATOM     59  H   UNK d   0     -13.900  -6.668   6.326  0.00  0.00     0.167 HD
ENDBRANCH  56  58
ENDBRANCH  55  56
ENDBRANCH  21  55
BRANCH  18  60
ATOM     60  C   UNK d   0     -18.804  -7.707   7.278  0.00  0.00     0.151 C 
BRANCH  60  61
ATOM     61  C   UNK d   0     -17.940  -6.805   8.054  0.00  0.00     0.143 C 
ATOM     62  O   UNK d   0     -16.919  -6.237   7.664  0.00  0.00    -0.650 OA
BRANCH  61  63
ATOM     63  O   UNK d   0     -18.348  -6.582   9.391  0.00  0.00    -0.776 OA
ATOM     64  H   UNK d   0     -17.807  -6.930  10.163  0.00  0.00     0.167 HD
ENDBRANCH  61  63
ENDBRANCH  60  61
ENDBRANCH  18  60
BRANCH  14  65
ATOM     65  C   UNK d   0     -21.627  -6.656   7.648  0.00  0.00     0.052 C 
BRANCH  65  66
ATOM     66  C   UNK d   0     -21.379  -5.665   8.730  0.00  0.00     0.115 C 
BRANCH  66  67
ATOM     67  C   UNK d   0     -22.355  -4.647   9.000  0.00  0.00     0.139 C 
ATOM     68  O   UNK d   0     -22.680  -3.841   8.053  0.00  0.00    -0.650 OA
BRANCH  67  69
ATOM     69  O   UNK d   0     -23.025  -4.405  10.199  0.00  0.00    -0.776 OA
ATOM     70  H   UNK d   0     -23.647  -3.584  10.207  0.00  0.00     0.167 HD
ENDBRANCH  67  69
ENDBRANCH  66  67
ENDBRANCH  65  66
ENDBRANCH  14  65
ENDBRANCH   6   7
ENDBRANCH   5   6
ENDBRANCH   2   5
TORSDOF 28
ENDMDL
MODEL 14
REMARK VINA RESULT:      -8.8      2.109     11.154
REMARK  28 active torsions:
REMARK  status: ('A' for Active; 'I' for Inactive)
REMARK    1  A    between atoms: C_2  and  O_3 
REMARK    2  A    between atoms: C_2  and  C_4 
REMARK    3  A    between atoms: C_4  and  C_5 
REMARK    4  A    between atoms: C_5  and  C_6 
REMARK    5  A    between atoms: C_7  and  C_8 
REMARK    6  A    between atoms: C_8  and  C_9 
REMARK    7  A    between atoms: C_9  and  O_11 
REMARK    8  A    between atoms: C_28  and  C_29 
REMARK    9  A    between atoms: C_29  and  C_30 
REMARK   10  A    between atoms: C_30  and  O_32 
REMARK   11  A    between atoms: C_33  and  C_34 
REMARK   12  A    between atoms: C_34  and  C_35 
REMARK   13  A    between atoms: C_35  and  C_36 
REMARK   14  A    between atoms: C_36  and  O_38 
REMARK   15  A    between atoms: C_39  and  C_40 
REMARK   16  A    between atoms: C_40  and  C_41 
REMARK   17  A    between atoms: C_41  and  C_42 
REMARK   18  A    between atoms: C_42  and  O_44 
REMARK   19  A    between atoms: C_45  and  C_46 
REMARK   20  A    between atoms: C_46  and  C_47 
REMARK   21  A    between atoms: C_47  and  O_49 
REMARK   22  A    between atoms: C_50  and  C_51 
REMARK   23  A    between atoms: C_51  and  C_52 
REMARK   24  A    between atoms: C_52  and  O_54 
REMARK   25  A    between atoms: C_55  and  C_56 
REMARK   26  A    between atoms: C_56  and  C_57 
REMARK   27  A    between atoms: C_57  and  C_58 
REMARK   28  A    between atoms: C_58  and  O_60 
ROOT
ATOM      1  O   UNK d   0     -14.107  -8.717   2.091  0.00  0.00    -0.650 OA
ATOM      2  C   UNK d   0     -13.761  -7.526   1.925  0.00  0.00     0.139 C 
ENDROOT
BRANCH   2   3
ATOM      3  O   UNK d   0     -13.025  -6.897   2.900  0.00  0.00    -0.776 OA
ATOM      4  H   UNK d   0     -12.633  -7.420   3.685  0.00  0.00     0.167 HD
ENDBRANCH   2   3
BRANCH   2   5
ATOM      5  C   UNK d   0     -14.146  -6.802   0.681  0.00  0.00     0.115 C 
BRANCH   5   6
ATOM      6  C   UNK d   0     -15.153  -7.605  -0.096  0.00  0.00     0.052 C 
BRANCH   6   7
ATOM      7  C   UNK d   0     -16.549  -7.037  -0.000  0.00  0.00    -0.020 A 
ATOM      8  C   UNK d   0     -17.291  -6.574  -0.974  0.00  0.00    -0.011 A 
ATOM      9  C   UNK d   0     -18.549  -6.127  -0.401  0.00  0.00     0.067 A 
ATOM     10  C   UNK d   0     -19.742  -5.570  -0.887  0.00  0.00     0.062 C 
ATOM     11  N   UNK d   0     -18.486  -6.350   0.929  0.00  0.00    -0.248 NA
ATOM     12  C   UNK d   0     -20.963  -5.461  -0.213  0.00  0.00     0.041 A 
ATOM     13  N   UNK d   0     -21.248  -5.103   1.054  0.00  0.00    -0.355 N 
ATOM     14  C   UNK d   0     -22.146  -5.820  -0.884  0.00  0.00    -0.022 A 
ATOM     15  C   UNK d   0     -22.579  -5.233   1.206  0.00  0.00     0.042 A 
ATOM     16  H   UNK d   0     -20.524  -4.746   1.820  0.00  0.00     0.166 HD
ATOM     17  C   UNK d   0     -23.399  -4.990   2.326  0.00  0.00     0.062 C 
ATOM     18  C   UNK d   0     -23.177  -5.681   0.012  0.00  0.00    -0.013 A 
ATOM     19  C   UNK d   0     -23.197  -5.345   3.635  0.00  0.00     0.067 A 
ATOM     20  N   UNK d   0     -21.986  -5.808   3.957  0.00  0.00    -0.248 NA
ATOM     21  C   UNK d   0     -23.999  -5.368   4.847  0.00  0.00    -0.011 A 
ATOM     22  C   UNK d   0     -21.939  -6.134   5.290  0.00  0.00     0.066 A 
ATOM     23  C   UNK d   0     -20.722  -6.595   5.769  0.00  0.00     0.062 C 
ATOM     24  C   UNK d   0     -23.259  -5.835   5.810  0.00  0.00    -0.020 A 
ATOM     25  C   UNK d   0     -19.503  -6.684   5.078  0.00  0.00     0.041 A 
ATOM     26  N   UNK d   0     -19.219  -7.055   3.824  0.00  0.00    -0.355 N 
ATOM     27  C   UNK d   0     -18.317  -6.319   5.752  0.00  0.00    -0.022 A 
ATOM     28  C   UNK d   0     -17.891  -6.934   3.673  0.00  0.00     0.042 A 
ATOM     29  H   UNK d   0     -19.946  -7.423   3.059  0.00  0.00     0.166 HD
ATOM     30  C   UNK d   0     -17.061  -7.181   2.567  0.00  0.00     0.062 C 
ATOM     31  C   UNK d   0     -17.292  -6.474   4.870  0.00  0.00    -0.013 A 
ATOM     32  C   UNK d   0     -17.308  -6.897   1.234  0.00  0.00     0.066 A 
BRANCH   8  33
ATOM     33  C   UNK d   0     -16.932  -6.502  -2.403  0.00  0.00     0.151 C 
BRANCH  33  34
ATOM     34  C   UNK d   0     -17.463  -7.636  -3.181  0.00  0.00     0.143 C 
ATOM     35  O   UNK d   0     -16.709  -8.357  -3.850  0.00  0.00    -0.650 OA
BRANCH  34  36
ATOM     36  O   UNK d   0     -18.814  -7.893  -3.164  0.00  0.00    -0.776 OA
ATOM     37  H   UNK d   0     -19.276  -8.373  -3.949  0.00  0.00     0.167 HD
ENDBRANCH  34  36
ENDBRANCH  33  34
ENDBRANCH   8  33
BRANCH  31  38
ATOM     38  C   UNK d   0     -15.833  -6.189   5.140  0.00  0.00     0.151 C 
BRANCH  38  39
ATOM     39  C   UNK d   0     -15.451  -4.836   4.794  0.00  0.00     0.143 C 
ATOM     40  O   UNK d   0     -15.806  -3.852   5.467  0.00  0.00    -0.650 OA
BRANCH  39  41
ATOM     41  O   UNK d   0     -14.657  -4.614   3.670  0.00  0.00    -0.776 OA
ATOM     42  H   UNK d   0     -14.580  -3.645   3.343  0.00  0.00     0.167 HD
ENDBRANCH  39  41
ENDBRANCH  38  39
ENDBRANCH  31  38
BRANCH  27  43
ATOM     43  C   UNK d   0     -18.128  -5.843   7.170  0.00  0.00     0.052 C 
BRANCH  43  44
ATOM     44  C   UNK d   0     -18.710  -6.770   8.187  0.00  0.00     0.115 C 
BRANCH  44  45
ATOM     45  C   UNK d   0     -17.567  -7.322   8.961  0.00  0.00     0.139 C 
ATOM     46  O   UNK d   0     -17.221  -8.509   8.738  0.00  0.00    -0.650 OA
BRANCH  45  47
ATOM     47  O   UNK d   0     -16.876  -6.588   9.900  0.00  0.00    -0.776 OA
ATOM     48  H   UNK d   0     -17.345  -5.986  10.597  0.00  0.00     0.167 HD
ENDBRANCH  45  47
ENDBRANCH  44  45
ENDBRANCH  43  44
ENDBRANCH  27  43
BRANCH  24  49
ATOM     49  C   UNK d   0     -23.663  -5.993   7.218  0.00  0.00     0.052 C 
BRANCH  49  50
ATOM     50  C   UNK d   0     -24.254  -7.360   7.444  0.00  0.00     0.115 C 
BRANCH  50  51
ATOM     51  C   UNK d   0     -24.227  -7.880   8.805  0.00  0.00     0.139 C 
ATOM     52  O   UNK d   0     -24.775  -8.961   9.127  0.00  0.00    -0.650 OA
BRANCH  51  53
ATOM     53  O   UNK d   0     -23.576  -7.166   9.799  0.00  0.00    -0.776 OA
ATOM     54  H   UNK d   0     -23.161  -7.677  10.558  0.00  0.00     0.167 HD
ENDBRANCH  51  53
ENDBRANCH  50  51
ENDBRANCH  49  50
ENDBRANCH  24  49
BRANCH  21  55
ATOM     55  C   UNK d   0     -25.421  -4.918   4.916  0.00  0.00     0.151 C 
BRANCH  55  56
ATOM     56  C   UNK d   0     -25.549  -3.465   4.725  0.00  0.00     0.143 C 
ATOM     57  O   UNK d   0     -26.408  -2.955   3.979  0.00  0.00    -0.650 OA
BRANCH  56  58
ATOM     58  O   UNK d   0     -24.664  -2.639   5.417  0.00  0.00    -0.776 OA
ATOM     59  H   UNK d   0     -25.089  -2.094   6.189  0.00  0.00     0.167 HD
ENDBRANCH  56  58
ENDBRANCH  55  56
ENDBRANCH  21  55
BRANCH  18  60
ATOM     60  C   UNK d   0     -24.627  -5.970  -0.287  0.00  0.00     0.151 C 
BRANCH  60  61
ATOM     61  C   UNK d   0     -25.137  -4.787  -0.996  0.00  0.00     0.143 C 
ATOM     62  O   UNK d   0     -24.819  -3.612  -0.804  0.00  0.00    -0.650 OA
BRANCH  61  63
ATOM     63  O   UNK d   0     -26.094  -5.054  -2.004  0.00  0.00    -0.776 OA
ATOM     64  H   UNK d   0     -27.066  -4.840  -1.866  0.00  0.00     0.167 HD
ENDBRANCH  61  63
ENDBRANCH  60  61
ENDBRANCH  18  60
BRANCH  14  65
ATOM     65  C   UNK d   0     -22.386  -6.186  -2.322  0.00  0.00     0.052 C 
BRANCH  65  66
ATOM     66  C   UNK d   0     -22.225  -5.035  -3.249  0.00  0.00     0.115 C 
BRANCH  66  67
ATOM     67  C   UNK d   0     -21.314  -5.133  -4.355  0.00  0.00     0.139 C 
ATOM     68  O   UNK d   0     -20.084  -5.420  -4.113  0.00  0.00    -0.650 OA
BRANCH  67  69
ATOM     69  O   UNK d   0     -21.593  -4.951  -5.709  0.00  0.00    -0.776 OA
ATOM     70  H   UNK d   0     -21.289  -4.053  -6.112  0.00  0.00     0.167 HD
ENDBRANCH  67  69
ENDBRANCH  66  67
ENDBRANCH  65  66
ENDBRANCH  14  65
ENDBRANCH   6   7
ENDBRANCH   5   6
ENDBRANCH   2   5
TORSDOF 28
ENDMDL
MODEL 15
REMARK VINA RESULT:      -8.7      6.812     12.683
REMARK  28 active torsions:
REMARK  status: ('A' for Active; 'I' for Inactive)
REMARK    1  A    between atoms: C_2  and  O_3 
REMARK    2  A    between atoms: C_2  and  C_4 
REMARK    3  A    between atoms: C_4  and  C_5 
REMARK    4  A    between atoms: C_5  and  C_6 
REMARK    5  A    between atoms: C_7  and  C_8 
REMARK    6  A    between atoms: C_8  and  C_9 
REMARK    7  A    between atoms: C_9  and  O_11 
REMARK    8  A    between atoms: C_28  and  C_29 
REMARK    9  A    between atoms: C_29  and  C_30 
REMARK   10  A    between atoms: C_30  and  O_32 
REMARK   11  A    between atoms: C_33  and  C_34 
REMARK   12  A    between atoms: C_34  and  C_35 
REMARK   13  A    between atoms: C_35  and  C_36 
REMARK   14  A    between atoms: C_36  and  O_38 
REMARK   15  A    between atoms: C_39  and  C_40 
REMARK   16  A    between atoms: C_40  and  C_41 
REMARK   17  A    between atoms: C_41  and  C_42 
REMARK   18  A    between atoms: C_42  and  O_44 
REMARK   19  A    between atoms: C_45  and  C_46 
REMARK   20  A    between atoms: C_46  and  C_47 
REMARK   21  A    between atoms: C_47  and  O_49 
REMARK   22  A    between atoms: C_50  and  C_51 
REMARK   23  A    between atoms: C_51  and  C_52 
REMARK   24  A    between atoms: C_52  and  O_54 
REMARK   25  A    between atoms: C_55  and  C_56 
REMARK   26  A    between atoms: C_56  and  C_57 
REMARK   27  A    between atoms: C_57  and  C_58 
REMARK   28  A    between atoms: C_58  and  O_60 
ROOT
ATOM      1  O   UNK d   0     -32.472  -5.117  14.402  0.00  0.00    -0.650 OA
ATOM      2  C   UNK d   0     -31.383  -4.663  14.819  0.00  0.00     0.139 C 
ENDROOT
BRANCH   2   3
ATOM      3  O   UNK d   0     -31.355  -3.959  15.999  0.00  0.00    -0.776 OA
ATOM      4  H   UNK d   0     -30.470  -3.738  16.460  0.00  0.00     0.167 HD
ENDBRANCH   2   3
BRANCH   2   5
ATOM      5  C   UNK d   0     -30.132  -4.887  14.041  0.00  0.00     0.115 C 
BRANCH   5   6
ATOM      6  C   UNK d   0     -29.502  -3.568  13.685  0.00  0.00     0.052 C 
BRANCH   6   7
ATOM      7  C   UNK d   0     -29.481  -3.318  12.196  0.00  0.00    -0.020 A 
ATOM      8  C   UNK d   0     -30.372  -2.680  11.481  0.00  0.00    -0.011 A 
ATOM      9  C   UNK d   0     -29.930  -2.700  10.097  0.00  0.00     0.067 A 
ATOM     10  C   UNK d   0     -30.402  -2.195   8.875  0.00  0.00     0.062 C 
ATOM     11  N   UNK d   0     -28.763  -3.378  10.059  0.00  0.00    -0.248 NA
ATOM     12  C   UNK d   0     -29.692  -2.077   7.676  0.00  0.00     0.041 A 
ATOM     13  N   UNK d   0     -28.844  -2.923   7.061  0.00  0.00    -0.355 N 
ATOM     14  C   UNK d   0     -29.779  -0.876   6.948  0.00  0.00    -0.022 A 
ATOM     15  C   UNK d   0     -28.385  -2.287   5.966  0.00  0.00     0.042 A 
ATOM     16  H   UNK d   0     -28.589  -3.957   7.384  0.00  0.00     0.166 HD
ATOM     17  C   UNK d   0     -27.480  -2.714   4.974  0.00  0.00     0.062 C 
ATOM     18  C   UNK d   0     -28.949  -1.001   5.862  0.00  0.00    -0.013 A 
ATOM     19  C   UNK d   0     -26.280  -3.361   5.123  0.00  0.00     0.067 A 
ATOM     20  N   UNK d   0     -25.996  -3.838   6.338  0.00  0.00    -0.248 NA
ATOM     21  C   UNK d   0     -25.151  -3.679   4.264  0.00  0.00    -0.011 A 
ATOM     22  C   UNK d   0     -24.764  -4.444   6.336  0.00  0.00     0.066 A 
ATOM     23  C   UNK d   0     -24.358  -5.019   7.531  0.00  0.00     0.062 C 
ATOM     24  C   UNK d   0     -24.265  -4.309   4.981  0.00  0.00    -0.020 A 
ATOM     25  C   UNK d   0     -25.092  -5.138   8.722  0.00  0.00     0.041 A 
ATOM     26  N   UNK d   0     -25.923  -4.292   9.341  0.00  0.00    -0.355 N 
ATOM     27  C   UNK d   0     -25.007  -6.346   9.449  0.00  0.00    -0.022 A 
ATOM     28  C   UNK d   0     -26.375  -4.920  10.437  0.00  0.00     0.042 A 
ATOM     29  H   UNK d   0     -26.170  -3.249   9.021  0.00  0.00     0.166 HD
ATOM     30  C   UNK d   0     -27.269  -4.504  11.437  0.00  0.00     0.062 C 
ATOM     31  C   UNK d   0     -25.816  -6.216  10.535  0.00  0.00    -0.013 A 
ATOM     32  C   UNK d   0     -28.438  -3.775  11.289  0.00  0.00     0.066 A 
BRANCH   8  33
ATOM     33  C   UNK d   0     -31.612  -2.049  11.970  0.00  0.00     0.151 C 
BRANCH  33  34
ATOM     34  C   UNK d   0     -31.588  -0.580  11.857  0.00  0.00     0.143 C 
ATOM     35  O   UNK d   0     -30.609   0.073  12.244  0.00  0.00    -0.650 OA
BRANCH  34  36
ATOM     36  O   UNK d   0     -32.671   0.073  11.314  0.00  0.00    -0.776 OA
ATOM     37  H   UNK d   0     -33.167   0.809  11.835  0.00  0.00     0.167 HD
ENDBRANCH  34  36
ENDBRANCH  33  34
ENDBRANCH   8  33
BRANCH  31  38
ATOM     38  C   UNK d   0     -26.057  -7.264  11.598  0.00  0.00     0.151 C 
BRANCH  38  39
ATOM     39  C   UNK d   0     -24.831  -7.745  12.199  0.00  0.00     0.143 C 
ATOM     40  O   UNK d   0     -23.939  -6.976  12.599  0.00  0.00    -0.650 OA
BRANCH  39  41
ATOM     41  O   UNK d   0     -24.630  -9.117  12.344  0.00  0.00    -0.776 OA
ATOM     42  H   UNK d   0     -25.200  -9.595  13.049  0.00  0.00     0.167 HD
ENDBRANCH  39  41
ENDBRANCH  38  39
ENDBRANCH  31  38
BRANCH  27  43
ATOM     43  C   UNK d   0     -24.201  -7.587   9.155  0.00  0.00     0.052 C 
BRANCH  43  44
ATOM     44  C   UNK d   0     -24.673  -8.324   7.944  0.00  0.00     0.115 C 
BRANCH  44  45
ATOM     45  C   UNK d   0     -25.780  -9.209   8.391  0.00  0.00     0.139 C 
ATOM     46  O   UNK d   0     -26.850  -9.196   7.733  0.00  0.00    -0.650 OA
BRANCH  45  47
ATOM     47  O   UNK d   0     -25.677 -10.040   9.485  0.00  0.00    -0.776 OA
ATOM     48  H   UNK d   0     -26.449 -10.179  10.158  0.00  0.00     0.167 HD
ENDBRANCH  45  47
ENDBRANCH  44  45
ENDBRANCH  43  44
ENDBRANCH  27  43
BRANCH  24  49
ATOM     49  C   UNK d   0     -22.983  -4.849   4.499  0.00  0.00     0.052 C 
BRANCH  49  50
ATOM     50  C   UNK d   0     -22.677  -6.159   5.179  0.00  0.00     0.115 C 
BRANCH  50  51
ATOM     51  C   UNK d   0     -21.307  -6.371   5.628  0.00  0.00     0.139 C 
ATOM     52  O   UNK d   0     -20.934  -6.127   6.800  0.00  0.00    -0.650 OA
BRANCH  51  53
ATOM     53  O   UNK d   0     -20.362  -6.860   4.740  0.00  0.00    -0.776 OA
ATOM     54  H   UNK d   0     -20.685  -7.336   3.916  0.00  0.00     0.167 HD
ENDBRANCH  51  53
ENDBRANCH  50  51
ENDBRANCH  49  50
ENDBRANCH  24  49
BRANCH  21  55
ATOM     55  C   UNK d   0     -25.077  -3.325   2.816  0.00  0.00     0.151 C 
BRANCH  55  56
ATOM     56  C   UNK d   0     -25.628  -4.386   1.960  0.00  0.00     0.143 C 
ATOM     57  O   UNK d   0     -26.183  -5.404   2.418  0.00  0.00    -0.650 OA
BRANCH  56  58
ATOM     58  O   UNK d   0     -25.514  -4.231   0.579  0.00  0.00    -0.776 OA
ATOM     59  H   UNK d   0     -26.063  -4.906   0.017  0.00  0.00     0.167 HD
ENDBRANCH  56  58
ENDBRANCH  55  56
ENDBRANCH  21  55
BRANCH  18  60
ATOM     60  C   UNK d   0     -28.731   0.062   4.814  0.00  0.00     0.151 C 
BRANCH  60  61
ATOM     61  C   UNK d   0     -27.609   0.881   5.298  0.00  0.00     0.143 C 
ATOM     62  O   UNK d   0     -26.431   0.538   5.404  0.00  0.00    -0.650 OA
BRANCH  61  63
ATOM     63  O   UNK d   0     -27.947   2.203   5.675  0.00  0.00    -0.776 OA
ATOM     64  H   UNK d   0     -27.264   2.816   6.085  0.00  0.00     0.167 HD
ENDBRANCH  61  63
ENDBRANCH  60  61
ENDBRANCH  18  60
BRANCH  14  65
ATOM     65  C   UNK d   0     -30.654   0.329   7.146  0.00  0.00     0.052 C 
BRANCH  65  66
ATOM     66  C   UNK d   0     -30.648   0.828   8.548  0.00  0.00     0.115 C 
BRANCH  66  67
ATOM     67  C   UNK d   0     -29.489   1.504   9.058  0.00  0.00     0.139 C 
ATOM     68  O   UNK d   0     -28.810   2.247   8.257  0.00  0.00    -0.650 OA
BRANCH  67  69
ATOM     69  O   UNK d   0     -28.978   1.462  10.354  0.00  0.00    -0.776 OA
ATOM     70  H   UNK d   0     -29.165   0.598  10.882  0.00  0.00     0.167 HD
ENDBRANCH  67  69
ENDBRANCH  66  67
ENDBRANCH  65  66
ENDBRANCH  14  65
ENDBRANCH   6   7
ENDBRANCH   5   6
ENDBRANCH   2   5
TORSDOF 28
ENDMDL
MODEL 16
REMARK VINA RESULT:      -8.7      1.213      7.416
REMARK  28 active torsions:
REMARK  status: ('A' for Active; 'I' for Inactive)
REMARK    1  A    between atoms: C_2  and  O_3 
REMARK    2  A    between atoms: C_2  and  C_4 
REMARK    3  A    between atoms: C_4  and  C_5 
REMARK    4  A    between atoms: C_5  and  C_6 
REMARK    5  A    between atoms: C_7  and  C_8 
REMARK    6  A    between atoms: C_8  and  C_9 
REMARK    7  A    between atoms: C_9  and  O_11 
REMARK    8  A    between atoms: C_28  and  C_29 
REMARK    9  A    between atoms: C_29  and  C_30 
REMARK   10  A    between atoms: C_30  and  O_32 
REMARK   11  A    between atoms: C_33  and  C_34 
REMARK   12  A    between atoms: C_34  and  C_35 
REMARK   13  A    between atoms: C_35  and  C_36 
REMARK   14  A    between atoms: C_36  and  O_38 
REMARK   15  A    between atoms: C_39  and  C_40 
REMARK   16  A    between atoms: C_40  and  C_41 
REMARK   17  A    between atoms: C_41  and  C_42 
REMARK   18  A    between atoms: C_42  and  O_44 
REMARK   19  A    between atoms: C_45  and  C_46 
REMARK   20  A    between atoms: C_46  and  C_47 
REMARK   21  A    between atoms: C_47  and  O_49 
REMARK   22  A    between atoms: C_50  and  C_51 
REMARK   23  A    between atoms: C_51  and  C_52 
REMARK   24  A    between atoms: C_52  and  O_54 
REMARK   25  A    between atoms: C_55  and  C_56 
REMARK   26  A    between atoms: C_56  and  C_57 
REMARK   27  A    between atoms: C_57  and  C_58 
REMARK   28  A    between atoms: C_58  and  O_60 
ROOT
ATOM      1  O   UNK d   0     -23.727  -3.150   8.679  0.00  0.00    -0.650 OA
ATOM      2  C   UNK d   0     -23.043  -3.864   7.912  0.00  0.00     0.139 C 
ENDROOT
BRANCH   2   3
ATOM      3  O   UNK d   0     -22.073  -4.681   8.439  0.00  0.00    -0.776 OA
ATOM      4  H   UNK d   0     -21.088  -4.407   8.427  0.00  0.00     0.167 HD
ENDBRANCH   2   3
BRANCH   2   5
ATOM      5  C   UNK d   0     -23.282  -3.824   6.441  0.00  0.00     0.115 C 
BRANCH   5   6
ATOM      6  C   UNK d   0     -23.433  -5.221   5.903  0.00  0.00     0.052 C 
BRANCH   6   7
ATOM      7  C   UNK d   0     -23.078  -5.321   4.439  0.00  0.00    -0.020 A 
ATOM      8  C   UNK d   0     -23.896  -5.342   3.419  0.00  0.00    -0.011 A 
ATOM      9  C   UNK d   0     -23.098  -5.457   2.210  0.00  0.00     0.067 A 
ATOM     10  C   UNK d   0     -23.351  -5.509   0.830  0.00  0.00     0.062 C 
ATOM     11  N   UNK d   0     -21.803  -5.506   2.588  0.00  0.00    -0.248 NA
ATOM     12  C   UNK d   0     -22.428  -5.340  -0.208  0.00  0.00     0.041 A 
ATOM     13  N   UNK d   0     -21.175  -5.807  -0.364  0.00  0.00    -0.355 N 
ATOM     14  C   UNK d   0     -22.767  -4.508  -1.291  0.00  0.00    -0.022 A 
ATOM     15  C   UNK d   0     -20.707  -5.287  -1.515  0.00  0.00     0.042 A 
ATOM     16  H   UNK d   0     -20.639  -6.506   0.315  0.00  0.00     0.166 HD
ATOM     17  C   UNK d   0     -19.459  -5.450  -2.150  0.00  0.00     0.062 C 
ATOM     18  C   UNK d   0     -21.676  -4.467  -2.124  0.00  0.00    -0.013 A 
ATOM     19  C   UNK d   0     -18.202  -5.416  -1.602  0.00  0.00     0.067 A 
ATOM     20  N   UNK d   0     -18.123  -5.429  -0.269  0.00  0.00    -0.248 NA
ATOM     21  C   UNK d   0     -16.842  -5.353  -2.111  0.00  0.00    -0.011 A 
ATOM     22  C   UNK d   0     -16.810  -5.377   0.131  0.00  0.00     0.066 A 
ATOM     23  C   UNK d   0     -16.579  -5.422   1.498  0.00  0.00     0.062 C 
ATOM     24  C   UNK d   0     -16.032  -5.326  -1.092  0.00  0.00    -0.020 A 
ATOM     25  C   UNK d   0     -17.520  -5.605   2.523  0.00  0.00     0.041 A 
ATOM     26  N   UNK d   0     -18.760  -5.129   2.686  0.00  0.00    -0.355 N 
ATOM     27  C   UNK d   0     -17.181  -6.443   3.608  0.00  0.00    -0.022 A 
ATOM     28  C   UNK d   0     -19.225  -5.639   3.837  0.00  0.00     0.042 A 
ATOM     29  H   UNK d   0     -19.293  -4.418   2.008  0.00  0.00     0.166 HD
ATOM     30  C   UNK d   0     -20.460  -5.478   4.485  0.00  0.00     0.062 C 
ATOM     31  C   UNK d   0     -18.254  -6.471   4.443  0.00  0.00    -0.013 A 
ATOM     32  C   UNK d   0     -21.723  -5.427   3.917  0.00  0.00     0.066 A 
BRANCH   8  33
ATOM     33  C   UNK d   0     -25.369  -5.270   3.464  0.00  0.00     0.151 C 
BRANCH  33  34
ATOM     34  C   UNK d   0     -25.889  -3.961   3.029  0.00  0.00     0.143 C 
ATOM     35  O   UNK d   0     -26.804  -3.885   2.196  0.00  0.00    -0.650 OA
BRANCH  34  36
ATOM     36  O   UNK d   0     -25.349  -2.811   3.555  0.00  0.00    -0.776 OA
ATOM     37  H   UNK d   0     -25.578  -2.501   4.509  0.00  0.00     0.167 HD
ENDBRANCH  34  36
ENDBRANCH  33  34
ENDBRANCH   8  33
BRANCH  31  38
ATOM     38  C   UNK d   0     -18.360  -7.250   5.734  0.00  0.00     0.151 C 
BRANCH  38  39
ATOM     39  C   UNK d   0     -18.247  -6.410   6.907  0.00  0.00     0.143 C 
ATOM     40  O   UNK d   0     -17.180  -5.860   7.232  0.00  0.00    -0.650 OA
BRANCH  39  41
ATOM     41  O   UNK d   0     -19.367  -6.201   7.712  0.00  0.00    -0.776 OA
ATOM     42  H   UNK d   0     -20.209  -6.738   7.480  0.00  0.00     0.167 HD
ENDBRANCH  39  41
ENDBRANCH  38  39
ENDBRANCH  31  38
BRANCH  27  43
ATOM     43  C   UNK d   0     -15.902  -7.199   3.872  0.00  0.00     0.052 C 
BRANCH  43  44
ATOM     44  C   UNK d   0     -14.686  -6.331   3.843  0.00  0.00     0.115 C 
BRANCH  44  45
ATOM     45  C   UNK d   0     -14.823  -5.370   4.969  0.00  0.00     0.139 C 
ATOM     46  O   UNK d   0     -15.259  -4.220   4.716  0.00  0.00    -0.650 OA
BRANCH  45  47
ATOM     47  O   UNK d   0     -14.499  -5.692   6.269  0.00  0.00    -0.776 OA
ATOM     48  H   UNK d   0     -14.581  -6.650   6.646  0.00  0.00     0.167 HD
ENDBRANCH  45  47
ENDBRANCH  44  45
ENDBRANCH  43  44
ENDBRANCH  27  43
BRANCH  24  49
ATOM     49  C   UNK d   0     -14.561  -5.300  -1.153  0.00  0.00     0.052 C 
BRANCH  49  50
ATOM     50  C   UNK d   0     -13.999  -6.667  -0.858  0.00  0.00     0.115 C 
BRANCH  50  51
ATOM     51  C   UNK d   0     -13.483  -6.898   0.484  0.00  0.00     0.139 C 
ATOM     52  O   UNK d   0     -13.762  -7.923   1.149  0.00  0.00    -0.650 OA
BRANCH  51  53
ATOM     53  O   UNK d   0     -12.649  -5.958   1.070  0.00  0.00    -0.776 OA
ATOM     54  H   UNK d   0     -11.713  -6.236   1.310  0.00  0.00     0.167 HD
ENDBRANCH  51  53
ENDBRANCH  50  51
ENDBRANCH  49  50
ENDBRANCH  24  49
BRANCH  21  55
ATOM     55  C   UNK d   0     -16.494  -5.330  -3.563  0.00  0.00     0.151 C 
BRANCH  55  56
ATOM     56  C   UNK d   0     -16.087  -6.656  -4.053  0.00  0.00     0.143 C 
ATOM     57  O   UNK d   0     -15.173  -6.816  -4.885  0.00  0.00    -0.650 OA
BRANCH  56  58
ATOM     58  O   UNK d   0     -16.763  -7.768  -3.554  0.00  0.00    -0.776 OA
ATOM     59  H   UNK d   0     -16.323  -8.680  -3.772  0.00  0.00     0.167 HD
ENDBRANCH  56  58
ENDBRANCH  55  56
ENDBRANCH  21  55
BRANCH  18  60
ATOM     60  C   UNK d   0     -21.600  -3.682  -3.410  0.00  0.00     0.151 C 
BRANCH  60  61
ATOM     61  C   UNK d   0     -21.508  -4.679  -4.487  0.00  0.00     0.143 C 
ATOM     62  O   UNK d   0     -20.655  -4.737  -5.374  0.00  0.00    -0.650 OA
BRANCH  61  63
ATOM     63  O   UNK d   0     -22.520  -5.669  -4.481  0.00  0.00    -0.776 OA
ATOM     64  H   UNK d   0     -23.482  -5.425  -4.320  0.00  0.00     0.167 HD
ENDBRANCH  61  63
ENDBRANCH  60  61
ENDBRANCH  18  60
BRANCH  14  65
ATOM     65  C   UNK d   0     -24.063  -3.836  -1.644  0.00  0.00     0.052 C 
BRANCH  65  66
ATOM     66  C   UNK d   0     -24.129  -2.422  -1.186  0.00  0.00     0.115 C 
BRANCH  66  67
ATOM     67  C   UNK d   0     -25.029  -2.057  -0.129  0.00  0.00     0.139 C 
ATOM     68  O   UNK d   0     -24.533  -1.673   0.994  0.00  0.00    -0.650 OA
BRANCH  67  69
ATOM     69  O   UNK d   0     -26.423  -2.064  -0.155  0.00  0.00    -0.776 OA
ATOM     70  H   UNK d   0     -26.884  -2.515   0.649  0.00  0.00     0.167 HD
ENDBRANCH  67  69
ENDBRANCH  66  67
ENDBRANCH  65  66
ENDBRANCH  14  65
ENDBRANCH   6   7
ENDBRANCH   5   6
ENDBRANCH   2   5
TORSDOF 28
ENDMDL
MODEL 17
REMARK VINA RESULT:      -8.7      6.809     12.819
REMARK  28 active torsions:
REMARK  status: ('A' for Active; 'I' for Inactive)
REMARK    1  A    between atoms: C_2  and  O_3 
REMARK    2  A    between atoms: C_2  and  C_4 
REMARK    3  A    between atoms: C_4  and  C_5 
REMARK    4  A    between atoms: C_5  and  C_6 
REMARK    5  A    between atoms: C_7  and  C_8 
REMARK    6  A    between atoms: C_8  and  C_9 
REMARK    7  A    between atoms: C_9  and  O_11 
REMARK    8  A    between atoms: C_28  and  C_29 
REMARK    9  A    between atoms: C_29  and  C_30 
REMARK   10  A    between atoms: C_30  and  O_32 
REMARK   11  A    between atoms: C_33  and  C_34 
REMARK   12  A    between atoms: C_34  and  C_35 
REMARK   13  A    between atoms: C_35  and  C_36 
REMARK   14  A    between atoms: C_36  and  O_38 
REMARK   15  A    between atoms: C_39  and  C_40 
REMARK   16  A    between atoms: C_40  and  C_41 
REMARK   17  A    between atoms: C_41  and  C_42 
REMARK   18  A    between atoms: C_42  and  O_44 
REMARK   19  A    between atoms: C_45  and  C_46 
REMARK   20  A    between atoms: C_46  and  C_47 
REMARK   21  A    between atoms: C_47  and  O_49 
REMARK   22  A    between atoms: C_50  and  C_51 
REMARK   23  A    between atoms: C_51  and  C_52 
REMARK   24  A    between atoms: C_52  and  O_54 
REMARK   25  A    between atoms: C_55  and  C_56 
REMARK   26  A    between atoms: C_56  and  C_57 
REMARK   27  A    between atoms: C_57  and  C_58 
REMARK   28  A    between atoms: C_58  and  O_60 
ROOT
ATOM      1  O   UNK d   0     -21.722  -6.131  12.241  0.00  0.00    -0.650 OA
ATOM      2  C   UNK d   0     -21.943  -5.617  11.122  0.00  0.00     0.139 C 
ENDROOT
BRANCH   2   3
ATOM      3  O   UNK d   0     -22.307  -4.294  11.048  0.00  0.00    -0.776 OA
ATOM      4  H   UNK d   0     -22.617  -3.785  11.879  0.00  0.00     0.167 HD
ENDBRANCH   2   3
BRANCH   2   5
ATOM      5  C   UNK d   0     -21.811  -6.436   9.884  0.00  0.00     0.115 C 
BRANCH   5   6
ATOM      6  C   UNK d   0     -23.007  -7.334   9.728  0.00  0.00     0.052 C 
BRANCH   6   7
ATOM      7  C   UNK d   0     -24.313  -6.577   9.771  0.00  0.00    -0.020 A 
ATOM      8  C   UNK d   0     -25.245  -6.644  10.688  0.00  0.00    -0.011 A 
ATOM      9  C   UNK d   0     -26.317  -5.743  10.299  0.00  0.00     0.067 A 
ATOM     10  C   UNK d   0     -27.551  -5.346  10.837  0.00  0.00     0.062 C 
ATOM     11  N   UNK d   0     -25.957  -5.172   9.130  0.00  0.00    -0.248 NA
ATOM     12  C   UNK d   0     -28.328  -4.248  10.454  0.00  0.00     0.041 A 
ATOM     13  N   UNK d   0     -28.641  -3.765   9.236  0.00  0.00    -0.355 N 
ATOM     14  C   UNK d   0     -28.872  -3.418  11.451  0.00  0.00    -0.022 A 
ATOM     15  C   UNK d   0     -29.363  -2.646   9.435  0.00  0.00     0.042 A 
ATOM     16  H   UNK d   0     -28.374  -4.217   8.256  0.00  0.00     0.166 HD
ATOM     17  C   UNK d   0     -29.941  -1.755   8.509  0.00  0.00     0.062 C 
ATOM     18  C   UNK d   0     -29.528  -2.396  10.811  0.00  0.00    -0.013 A 
ATOM     19  C   UNK d   0     -29.395  -1.222   7.369  0.00  0.00     0.067 A 
ATOM     20  N   UNK d   0     -28.241  -1.746   6.950  0.00  0.00    -0.248 NA
ATOM     21  C   UNK d   0     -29.747  -0.162   6.439  0.00  0.00    -0.011 A 
ATOM     22  C   UNK d   0     -27.811  -1.104   5.813  0.00  0.00     0.066 A 
ATOM     23  C   UNK d   0     -26.637  -1.576   5.246  0.00  0.00     0.062 C 
ATOM     24  C   UNK d   0     -28.814  -0.095   5.534  0.00  0.00    -0.020 A 
ATOM     25  C   UNK d   0     -25.878  -2.689   5.639  0.00  0.00     0.041 A 
ATOM     26  N   UNK d   0     -25.554  -3.160   6.849  0.00  0.00    -0.355 N 
ATOM     27  C   UNK d   0     -25.336  -3.524   4.637  0.00  0.00    -0.022 A 
ATOM     28  C   UNK d   0     -24.827  -4.271   6.653  0.00  0.00     0.042 A 
ATOM     29  H   UNK d   0     -25.814  -2.699   7.833  0.00  0.00     0.166 HD
ATOM     30  C   UNK d   0     -24.238  -5.162   7.565  0.00  0.00     0.062 C 
ATOM     31  C   UNK d   0     -24.670  -4.528   5.270  0.00  0.00    -0.013 A 
ATOM     32  C   UNK d   0     -24.761  -5.632   8.759  0.00  0.00     0.066 A 
BRANCH   8  33
ATOM     33  C   UNK d   0     -25.233  -7.481  11.902  0.00  0.00     0.151 C 
BRANCH  33  34
ATOM     34  C   UNK d   0     -26.075  -8.684  11.773  0.00  0.00     0.143 C 
ATOM     35  O   UNK d   0     -27.087  -8.831  12.473  0.00  0.00    -0.650 OA
BRANCH  34  36
ATOM     36  O   UNK d   0     -25.728  -9.657  10.864  0.00  0.00    -0.776 OA
ATOM     37  H   UNK d   0     -25.163 -10.471  11.142  0.00  0.00     0.167 HD
ENDBRANCH  34  36
ENDBRANCH  33  34
ENDBRANCH   8  33
BRANCH  31  38
ATOM     38  C   UNK d   0     -23.939  -5.671   4.605  0.00  0.00     0.151 C 
BRANCH  38  39
ATOM     39  C   UNK d   0     -22.514  -5.441   4.501  0.00  0.00     0.143 C 
ATOM     40  O   UNK d   0     -21.711  -6.352   4.231  0.00  0.00    -0.650 OA
BRANCH  39  41
ATOM     41  O   UNK d   0     -22.009  -4.158   4.707  0.00  0.00    -0.776 OA
ATOM     42  H   UNK d   0     -22.255  -3.701   5.590  0.00  0.00     0.167 HD
ENDBRANCH  39  41
ENDBRANCH  38  39
ENDBRANCH  31  38
BRANCH  27  43
ATOM     43  C   UNK d   0     -25.425  -3.402   3.137  0.00  0.00     0.052 C 
BRANCH  43  44
ATOM     44  C   UNK d   0     -26.659  -4.020   2.566  0.00  0.00     0.115 C 
BRANCH  44  45
ATOM     45  C   UNK d   0     -26.222  -5.226   1.814  0.00  0.00     0.139 C 
ATOM     46  O   UNK d   0     -25.104  -5.192   1.241  0.00  0.00    -0.650 OA
BRANCH  45  47
ATOM     47  O   UNK d   0     -26.985  -6.370   1.727  0.00  0.00    -0.776 OA
ATOM     48  H   UNK d   0     -26.896  -7.155   2.392  0.00  0.00     0.167 HD
ENDBRANCH  45  47
ENDBRANCH  44  45
ENDBRANCH  43  44
ENDBRANCH  27  43
BRANCH  24  49
ATOM     49  C   UNK d   0     -28.791   0.816   4.377  0.00  0.00     0.052 C 
BRANCH  49  50
ATOM     50  C   UNK d   0     -27.569   1.698   4.428  0.00  0.00     0.115 C 
BRANCH  50  51
ATOM     51  C   UNK d   0     -26.734   1.747   3.236  0.00  0.00     0.139 C 
ATOM     52  O   UNK d   0     -25.488   1.878   3.289  0.00  0.00    -0.650 OA
BRANCH  51  53
ATOM     53  O   UNK d   0     -27.319   1.649   1.983  0.00  0.00    -0.776 OA
ATOM     54  H   UNK d   0     -28.198   2.112   1.832  0.00  0.00     0.167 HD
ENDBRANCH  51  53
ENDBRANCH  50  51
ENDBRANCH  49  50
ENDBRANCH  24  49
BRANCH  21  55
ATOM     55  C   UNK d   0     -30.981   0.671   6.551  0.00  0.00     0.151 C 
BRANCH  55  56
ATOM     56  C   UNK d   0     -31.128   1.264   7.889  0.00  0.00     0.143 C 
ATOM     57  O   UNK d   0     -30.184   1.812   8.491  0.00  0.00    -0.650 OA
BRANCH  56  58
ATOM     58  O   UNK d   0     -32.382   1.200   8.493  0.00  0.00    -0.776 OA
ATOM     59  H   UNK d   0     -32.886   0.305   8.359  0.00  0.00     0.167 HD
ENDBRANCH  56  58
ENDBRANCH  55  56
ENDBRANCH  21  55
BRANCH  18  60
ATOM     60  C   UNK d   0     -30.253  -1.268  11.503  0.00  0.00     0.151 C 
BRANCH  60  61
ATOM     61  C   UNK d   0     -31.678  -1.632  11.484  0.00  0.00     0.143 C 
ATOM     62  O   UNK d   0     -32.154  -2.768  11.481  0.00  0.00    -0.650 OA
BRANCH  61  63
ATOM     63  O   UNK d   0     -32.579  -0.540  11.468  0.00  0.00    -0.776 OA
ATOM     64  H   UNK d   0     -33.012  -0.213  12.314  0.00  0.00     0.167 HD
ENDBRANCH  61  63
ENDBRANCH  60  61
ENDBRANCH  18  60
BRANCH  14  65
ATOM     65  C   UNK d   0     -28.903  -3.571  12.945  0.00  0.00     0.052 C 
BRANCH  65  66
ATOM     66  C   UNK d   0     -30.083  -4.335  13.428  0.00  0.00     0.115 C 
BRANCH  66  67
ATOM     67  C   UNK d   0     -30.473  -4.247  14.807  0.00  0.00     0.139 C 
ATOM     68  O   UNK d   0     -31.660  -4.616  15.135  0.00  0.00    -0.650 OA
BRANCH  67  69
ATOM     69  O   UNK d   0     -29.707  -3.798  15.883  0.00  0.00    -0.776 OA
ATOM     70  H   UNK d   0     -29.106  -4.505  16.331  0.00  0.00     0.167 HD
ENDBRANCH  67  69
ENDBRANCH  66  67
ENDBRANCH  65  66
ENDBRANCH  14  65
ENDBRANCH   6   7
ENDBRANCH   5   6
ENDBRANCH   2   5
TORSDOF 28
ENDMDL
MODEL 18
REMARK VINA RESULT:      -8.7      5.406     11.477
REMARK  28 active torsions:
REMARK  status: ('A' for Active; 'I' for Inactive)
REMARK    1  A    between atoms: C_2  and  O_3 
REMARK    2  A    between atoms: C_2  and  C_4 
REMARK    3  A    between atoms: C_4  and  C_5 
REMARK    4  A    between atoms: C_5  and  C_6 
REMARK    5  A    between atoms: C_7  and  C_8 
REMARK    6  A    between atoms: C_8  and  C_9 
REMARK    7  A    between atoms: C_9  and  O_11 
REMARK    8  A    between atoms: C_28  and  C_29 
REMARK    9  A    between atoms: C_29  and  C_30 
REMARK   10  A    between atoms: C_30  and  O_32 
REMARK   11  A    between atoms: C_33  and  C_34 
REMARK   12  A    between atoms: C_34  and  C_35 
REMARK   13  A    between atoms: C_35  and  C_36 
REMARK   14  A    between atoms: C_36  and  O_38 
REMARK   15  A    between atoms: C_39  and  C_40 
REMARK   16  A    between atoms: C_40  and  C_41 
REMARK   17  A    between atoms: C_41  and  C_42 
REMARK   18  A    between atoms: C_42  and  O_44 
REMARK   19  A    between atoms: C_45  and  C_46 
REMARK   20  A    between atoms: C_46  and  C_47 
REMARK   21  A    between atoms: C_47  and  O_49 
REMARK   22  A    between atoms: C_50  and  C_51 
REMARK   23  A    between atoms: C_51  and  C_52 
REMARK   24  A    between atoms: C_52  and  O_54 
REMARK   25  A    between atoms: C_55  and  C_56 
REMARK   26  A    between atoms: C_56  and  C_57 
REMARK   27  A    between atoms: C_57  and  C_58 
REMARK   28  A    between atoms: C_58  and  O_60 
ROOT
ATOM      1  O   UNK d   0     -23.324  -1.590   0.258  0.00  0.00    -0.650 OA
ATOM      2  C   UNK d   0     -24.568  -1.674   0.165  0.00  0.00     0.139 C 
ENDROOT
BRANCH   2   3
ATOM      3  O   UNK d   0     -25.132  -2.835  -0.308  0.00  0.00    -0.776 OA
ATOM      4  H   UNK d   0     -24.667  -3.391  -1.029  0.00  0.00     0.167 HD
ENDBRANCH   2   3
BRANCH   2   5
ATOM      5  C   UNK d   0     -25.428  -0.523   0.563  0.00  0.00     0.115 C 
BRANCH   5   6
ATOM      6  C   UNK d   0     -26.680  -1.020   1.234  0.00  0.00     0.052 C 
BRANCH   6   7
ATOM      7  C   UNK d   0     -26.564  -1.038   2.740  0.00  0.00    -0.020 A 
ATOM      8  C   UNK d   0     -26.930  -0.103   3.579  0.00  0.00    -0.011 A 
ATOM      9  C   UNK d   0     -26.615  -0.563   4.921  0.00  0.00     0.067 A 
ATOM     10  C   UNK d   0     -26.767  -0.064   6.225  0.00  0.00     0.062 C 
ATOM     11  N   UNK d   0     -26.056  -1.786   4.805  0.00  0.00    -0.248 NA
ATOM     12  C   UNK d   0     -26.655  -0.777   7.423  0.00  0.00     0.041 A 
ATOM     13  N   UNK d   0     -25.765  -1.705   7.823  0.00  0.00    -0.355 N 
ATOM     14  C   UNK d   0     -27.633  -0.593   8.418  0.00  0.00    -0.022 A 
ATOM     15  C   UNK d   0     -26.156  -2.119   9.043  0.00  0.00     0.042 A 
ATOM     16  H   UNK d   0     -24.867  -2.045   7.263  0.00  0.00     0.166 HD
ATOM     17  C   UNK d   0     -25.586  -3.072   9.910  0.00  0.00     0.062 C 
ATOM     18  C   UNK d   0     -27.324  -1.445   9.449  0.00  0.00    -0.013 A 
ATOM     19  C   UNK d   0     -25.103  -4.322   9.620  0.00  0.00     0.067 A 
ATOM     20  N   UNK d   0     -24.960  -4.631   8.329  0.00  0.00    -0.248 NA
ATOM     21  C   UNK d   0     -24.689  -5.486  10.387  0.00  0.00    -0.011 A 
ATOM     22  C   UNK d   0     -24.485  -5.913   8.195  0.00  0.00     0.066 A 
ATOM     23  C   UNK d   0     -24.253  -6.352   6.900  0.00  0.00     0.062 C 
ATOM     24  C   UNK d   0     -24.333  -6.415   9.546  0.00  0.00    -0.020 A 
ATOM     25  C   UNK d   0     -24.359  -5.616   5.710  0.00  0.00     0.041 A 
ATOM     26  N   UNK d   0     -25.253  -4.704   5.306  0.00  0.00    -0.355 N 
ATOM     27  C   UNK d   0     -23.375  -5.798   4.713  0.00  0.00    -0.022 A 
ATOM     28  C   UNK d   0     -24.869  -4.296   4.086  0.00  0.00     0.042 A 
ATOM     29  H   UNK d   0     -26.161  -4.371   5.866  0.00  0.00     0.166 HD
ATOM     30  C   UNK d   0     -25.432  -3.356   3.208  0.00  0.00     0.062 C 
ATOM     31  C   UNK d   0     -23.690  -4.966   3.683  0.00  0.00    -0.013 A 
ATOM     32  C   UNK d   0     -25.997  -2.129   3.518  0.00  0.00     0.066 A 
BRANCH   8  33
ATOM     33  C   UNK d   0     -27.546   1.195   3.246  0.00  0.00     0.151 C 
BRANCH  33  34
ATOM     34  C   UNK d   0     -26.575   2.169   2.716  0.00  0.00     0.143 C 
ATOM     35  O   UNK d   0     -26.918   3.023   1.886  0.00  0.00    -0.650 OA
BRANCH  34  36
ATOM     36  O   UNK d   0     -25.270   2.125   3.150  0.00  0.00    -0.776 OA
ATOM     37  H   UNK d   0     -24.485   2.119   2.484  0.00  0.00     0.167 HD
ENDBRANCH  34  36
ENDBRANCH  33  34
ENDBRANCH   8  33
BRANCH  31  38
ATOM     38  C   UNK d   0     -22.913  -4.806   2.397  0.00  0.00     0.151 C 
BRANCH  38  39
ATOM     39  C   UNK d   0     -23.335  -5.730   1.366  0.00  0.00     0.143 C 
ATOM     40  O   UNK d   0     -22.618  -6.670   0.980  0.00  0.00    -0.650 OA
BRANCH  39  41
ATOM     41  O   UNK d   0     -24.589  -5.573   0.777  0.00  0.00    -0.776 OA
ATOM     42  H   UNK d   0     -25.301  -6.271   1.013  0.00  0.00     0.167 HD
ENDBRANCH  39  41
ENDBRANCH  38  39
ENDBRANCH  31  38
BRANCH  27  43
ATOM     43  C   UNK d   0     -22.177  -6.714   4.706  0.00  0.00     0.052 C 
BRANCH  43  44
ATOM     44  C   UNK d   0     -21.096  -6.281   5.642  0.00  0.00     0.115 C 
BRANCH  44  45
ATOM     45  C   UNK d   0     -19.890  -6.032   4.811  0.00  0.00     0.139 C 
ATOM     46  O   UNK d   0     -19.863  -4.994   4.104  0.00  0.00    -0.650 OA
BRANCH  45  47
ATOM     47  O   UNK d   0     -18.807  -6.884   4.790  0.00  0.00    -0.776 OA
ATOM     48  H   UNK d   0     -17.837  -6.555   4.657  0.00  0.00     0.167 HD
ENDBRANCH  45  47
ENDBRANCH  44  45
ENDBRANCH  43  44
ENDBRANCH  27  43
BRANCH  24  49
ATOM     49  C   UNK d   0     -23.809  -7.746   9.895  0.00  0.00     0.052 C 
BRANCH  49  50
ATOM     50  C   UNK d   0     -24.831  -8.810   9.585  0.00  0.00     0.115 C 
BRANCH  50  51
ATOM     51  C   UNK d   0     -26.042  -8.824  10.395  0.00  0.00     0.139 C 
ATOM     52  O   UNK d   0     -26.054  -9.215  11.586  0.00  0.00    -0.650 OA
BRANCH  51  53
ATOM     53  O   UNK d   0     -27.240  -8.394   9.845  0.00  0.00    -0.776 OA
ATOM     54  H   UNK d   0     -27.945  -9.081   9.644  0.00  0.00     0.167 HD
ENDBRANCH  51  53
ENDBRANCH  50  51
ENDBRANCH  49  50
ENDBRANCH  24  49
BRANCH  21  55
ATOM     55  C   UNK d   0     -24.689  -5.547  11.878  0.00  0.00     0.151 C 
BRANCH  55  56
ATOM     56  C   UNK d   0     -23.363  -5.255  12.442  0.00  0.00     0.143 C 
ATOM     57  O   UNK d   0     -22.676  -6.113  13.031  0.00  0.00    -0.650 OA
BRANCH  56  58
ATOM     58  O   UNK d   0     -22.869  -3.959  12.303  0.00  0.00    -0.776 OA
ATOM     59  H   UNK d   0     -22.992  -3.354  13.134  0.00  0.00     0.167 HD
ENDBRANCH  56  58
ENDBRANCH  55  56
ENDBRANCH  21  55
BRANCH  18  60
ATOM     60  C   UNK d   0     -28.118  -1.582  10.725  0.00  0.00     0.151 C 
BRANCH  60  61
ATOM     61  C   UNK d   0     -29.251  -2.464  10.402  0.00  0.00     0.143 C 
ATOM     62  O   UNK d   0     -30.441  -2.260  10.642  0.00  0.00    -0.650 OA
BRANCH  61  63
ATOM     63  O   UNK d   0     -28.907  -3.670   9.746  0.00  0.00    -0.776 OA
ATOM     64  H   UNK d   0     -29.011  -3.767   8.752  0.00  0.00     0.167 HD
ENDBRANCH  61  63
ENDBRANCH  60  61
ENDBRANCH  18  60
BRANCH  14  65
ATOM     65  C   UNK d   0     -28.767   0.388   8.509  0.00  0.00     0.052 C 
BRANCH  65  66
ATOM     66  C   UNK d   0     -30.012  -0.101   7.858  0.00  0.00     0.115 C 
BRANCH  66  67
ATOM     67  C   UNK d   0     -30.672   0.717   6.880  0.00  0.00     0.139 C 
ATOM     68  O   UNK d   0     -30.250   0.682   5.666  0.00  0.00    -0.650 OA
BRANCH  67  69
ATOM     69  O   UNK d   0     -31.751   1.578   7.076  0.00  0.00    -0.776 OA
ATOM     70  H   UNK d   0     -32.630   1.307   6.613  0.00  0.00     0.167 HD
ENDBRANCH  67  69
ENDBRANCH  66  67
ENDBRANCH  65  66
ENDBRANCH  14  65
ENDBRANCH   6   7
ENDBRANCH   5   6
ENDBRANCH   2   5
TORSDOF 28
ENDMDL
MODEL 19
REMARK VINA RESULT:      -8.6      3.727      9.743
REMARK  28 active torsions:
REMARK  status: ('A' for Active; 'I' for Inactive)
REMARK    1  A    between atoms: C_2  and  O_3 
REMARK    2  A    between atoms: C_2  and  C_4 
REMARK    3  A    between atoms: C_4  and  C_5 
REMARK    4  A    between atoms: C_5  and  C_6 
REMARK    5  A    between atoms: C_7  and  C_8 
REMARK    6  A    between atoms: C_8  and  C_9 
REMARK    7  A    between atoms: C_9  and  O_11 
REMARK    8  A    between atoms: C_28  and  C_29 
REMARK    9  A    between atoms: C_29  and  C_30 
REMARK   10  A    between atoms: C_30  and  O_32 
REMARK   11  A    between atoms: C_33  and  C_34 
REMARK   12  A    between atoms: C_34  and  C_35 
REMARK   13  A    between atoms: C_35  and  C_36 
REMARK   14  A    between atoms: C_36  and  O_38 
REMARK   15  A    between atoms: C_39  and  C_40 
REMARK   16  A    between atoms: C_40  and  C_41 
REMARK   17  A    between atoms: C_41  and  C_42 
REMARK   18  A    between atoms: C_42  and  O_44 
REMARK   19  A    between atoms: C_45  and  C_46 
REMARK   20  A    between atoms: C_46  and  C_47 
REMARK   21  A    between atoms: C_47  and  O_49 
REMARK   22  A    between atoms: C_50  and  C_51 
REMARK   23  A    between atoms: C_51  and  C_52 
REMARK   24  A    between atoms: C_52  and  O_54 
REMARK   25  A    between atoms: C_55  and  C_56 
REMARK   26  A    between atoms: C_56  and  C_57 
REMARK   27  A    between atoms: C_57  and  C_58 
REMARK   28  A    between atoms: C_58  and  O_60 
ROOT
ATOM      1  O   UNK d   0     -25.901   0.798   1.912  0.00  0.00    -0.650 OA
ATOM      2  C   UNK d   0     -26.254  -0.394   2.051  0.00  0.00     0.139 C 
ENDROOT
BRANCH   2   3
ATOM      3  O   UNK d   0     -27.011  -0.749   3.141  0.00  0.00    -0.776 OA
ATOM      4  H   UNK d   0     -27.739  -0.129   3.503  0.00  0.00     0.167 HD
ENDBRANCH   2   3
BRANCH   2   5
ATOM      5  C   UNK d   0     -25.855  -1.416   1.042  0.00  0.00     0.115 C 
BRANCH   5   6
ATOM      6  C   UNK d   0     -26.309  -2.781   1.481  0.00  0.00     0.052 C 
BRANCH   6   7
ATOM      7  C   UNK d   0     -25.179  -3.622   2.026  0.00  0.00    -0.020 A 
ATOM      8  C   UNK d   0     -24.291  -4.303   1.347  0.00  0.00    -0.011 A 
ATOM      9  C   UNK d   0     -23.411  -4.960   2.299  0.00  0.00     0.067 A 
ATOM     10  C   UNK d   0     -22.282  -5.791   2.228  0.00  0.00     0.062 C 
ATOM     11  N   UNK d   0     -23.839  -4.628   3.535  0.00  0.00    -0.248 NA
ATOM     12  C   UNK d   0     -21.393  -6.103   3.263  0.00  0.00     0.041 A 
ATOM     13  N   UNK d   0     -21.611  -6.416   4.554  0.00  0.00    -0.355 N 
ATOM     14  C   UNK d   0     -20.010  -6.052   3.010  0.00  0.00    -0.022 A 
ATOM     15  C   UNK d   0     -20.402  -6.558   5.129  0.00  0.00     0.042 A 
ATOM     16  H   UNK d   0     -22.600  -6.553   5.045  0.00  0.00     0.166 HD
ATOM     17  C   UNK d   0     -20.053  -6.882   6.456  0.00  0.00     0.062 C 
ATOM     18  C   UNK d   0     -19.374  -6.337   4.192  0.00  0.00    -0.013 A 
ATOM     19  C   UNK d   0     -20.574  -6.395   7.627  0.00  0.00     0.067 A 
ATOM     20  N   UNK d   0     -21.688  -5.665   7.537  0.00  0.00    -0.248 NA
ATOM     21  C   UNK d   0     -20.211  -6.449   9.034  0.00  0.00    -0.011 A 
ATOM     22  C   UNK d   0     -22.079  -5.236   8.782  0.00  0.00     0.066 A 
ATOM     23  C   UNK d   0     -23.250  -4.495   8.838  0.00  0.00     0.062 C 
ATOM     24  C   UNK d   0     -21.094  -5.766   9.703  0.00  0.00    -0.020 A 
ATOM     25  C   UNK d   0     -24.136  -4.203   7.789  0.00  0.00     0.041 A 
ATOM     26  N   UNK d   0     -23.919  -3.877   6.509  0.00  0.00    -0.355 N 
ATOM     27  C   UNK d   0     -25.524  -4.258   8.043  0.00  0.00    -0.022 A 
ATOM     28  C   UNK d   0     -25.124  -3.727   5.936  0.00  0.00     0.042 A 
ATOM     29  H   UNK d   0     -22.925  -3.729   6.021  0.00  0.00     0.166 HD
ATOM     30  C   UNK d   0     -25.484  -3.395   4.620  0.00  0.00     0.062 C 
ATOM     31  C   UNK d   0     -26.156  -3.959   6.875  0.00  0.00    -0.013 A 
ATOM     32  C   UNK d   0     -24.900  -3.825   3.440  0.00  0.00     0.066 A 
BRANCH   8  33
ATOM     33  C   UNK d   0     -24.187  -4.405  -0.120  0.00  0.00     0.151 C 
BRANCH  33  34
ATOM     34  C   UNK d   0     -24.733  -5.670  -0.644  0.00  0.00     0.143 C 
ATOM     35  O   UNK d   0     -23.987  -6.535  -1.124  0.00  0.00    -0.650 OA
BRANCH  34  36
ATOM     36  O   UNK d   0     -26.091  -5.888  -0.601  0.00  0.00    -0.776 OA
ATOM     37  H   UNK d   0     -26.744  -5.304  -1.141  0.00  0.00     0.167 HD
ENDBRANCH  34  36
ENDBRANCH  33  34
ENDBRANCH   8  33
BRANCH  31  38
ATOM     38  C   UNK d   0     -27.651  -3.909   6.658  0.00  0.00     0.151 C 
BRANCH  38  39
ATOM     39  C   UNK d   0     -28.204  -2.587   6.863  0.00  0.00     0.143 C 
ATOM     40  O   UNK d   0     -27.489  -1.593   7.082  0.00  0.00    -0.650 OA
BRANCH  39  41
ATOM     41  O   UNK d   0     -29.586  -2.406   6.813  0.00  0.00    -0.776 OA
ATOM     42  H   UNK d   0     -29.921  -1.506   6.456  0.00  0.00     0.167 HD
ENDBRANCH  39  41
ENDBRANCH  38  39
ENDBRANCH  31  38
BRANCH  27  43
ATOM     43  C   UNK d   0     -26.252  -4.576   9.325  0.00  0.00     0.052 C 
BRANCH  43  44
ATOM     44  C   UNK d   0     -25.924  -5.928   9.871  0.00  0.00     0.115 C 
BRANCH  44  45
ATOM     45  C   UNK d   0     -26.457  -6.919   8.900  0.00  0.00     0.139 C 
ATOM     46  O   UNK d   0     -25.648  -7.716   8.364  0.00  0.00    -0.650 OA
BRANCH  45  47
ATOM     47  O   UNK d   0     -27.793  -7.000   8.573  0.00  0.00    -0.776 OA
ATOM     48  H   UNK d   0     -28.166  -7.699   7.910  0.00  0.00     0.167 HD
ENDBRANCH  45  47
ENDBRANCH  44  45
ENDBRANCH  43  44
ENDBRANCH  27  43
BRANCH  24  49
ATOM     49  C   UNK d   0     -21.130  -5.591  11.165  0.00  0.00     0.052 C 
BRANCH  49  50
ATOM     50  C   UNK d   0     -22.403  -6.165  11.731  0.00  0.00     0.115 C 
BRANCH  50  51
ATOM     51  C   UNK d   0     -23.098  -5.376  12.740  0.00  0.00     0.139 C 
ATOM     52  O   UNK d   0     -22.902  -5.527  13.969  0.00  0.00    -0.650 OA
BRANCH  51  53
ATOM     53  O   UNK d   0     -24.018  -4.417  12.347  0.00  0.00    -0.776 OA
ATOM     54  H   UNK d   0     -24.351  -4.437  11.399  0.00  0.00     0.167 HD
ENDBRANCH  51  53
ENDBRANCH  50  51
ENDBRANCH  49  50
ENDBRANCH  24  49
BRANCH  21  55
ATOM     55  C   UNK d   0     -19.022  -7.182   9.562  0.00  0.00     0.151 C 
BRANCH  55  56
ATOM     56  C   UNK d   0     -17.920  -7.219   8.589  0.00  0.00     0.143 C 
ATOM     57  O   UNK d   0     -17.270  -6.205   8.266  0.00  0.00    -0.650 OA
BRANCH  56  58
ATOM     58  O   UNK d   0     -17.603  -8.449   8.014  0.00  0.00    -0.776 OA
ATOM     59  H   UNK d   0     -16.612  -8.556   7.732  0.00  0.00     0.167 HD
ENDBRANCH  56  58
ENDBRANCH  55  56
ENDBRANCH  21  55
BRANCH  18  60
ATOM     60  C   UNK d   0     -17.877  -6.383   4.379  0.00  0.00     0.151 C 
BRANCH  60  61
ATOM     61  C   UNK d   0     -17.486  -5.042   4.839  0.00  0.00     0.143 C 
ATOM     62  O   UNK d   0     -17.975  -3.966   4.492  0.00  0.00    -0.650 OA
BRANCH  61  63
ATOM     63  O   UNK d   0     -16.432  -5.012   5.784  0.00  0.00    -0.776 OA
ATOM     64  H   UNK d   0     -15.652  -4.390   5.671  0.00  0.00     0.167 HD
ENDBRANCH  61  63
ENDBRANCH  60  61
ENDBRANCH  18  60
BRANCH  14  65
ATOM     65  C   UNK d   0     -19.254  -5.854   1.727  0.00  0.00     0.052 C 
BRANCH  65  66
ATOM     66  C   UNK d   0     -19.647  -6.819   0.665  0.00  0.00     0.115 C 
BRANCH  66  67
ATOM     67  C   UNK d   0     -20.002  -6.336  -0.639  0.00  0.00     0.139 C 
ATOM     68  O   UNK d   0     -19.186  -5.548  -1.245  0.00  0.00    -0.650 OA
BRANCH  67  69
ATOM     69  O   UNK d   0     -21.158  -6.617  -1.368  0.00  0.00    -0.776 OA
ATOM     70  H   UNK d   0     -21.282  -7.600  -1.649  0.00  0.00     0.167 HD
ENDBRANCH  67  69
ENDBRANCH  66  67
ENDBRANCH  65  66
ENDBRANCH  14  65
ENDBRANCH   6   7
ENDBRANCH   5   6
ENDBRANCH   2   5
TORSDOF 28
ENDMDL
MODEL 20
REMARK VINA RESULT:      -8.6      3.865     10.178
REMARK  28 active torsions:
REMARK  status: ('A' for Active; 'I' for Inactive)
REMARK    1  A    between atoms: C_2  and  O_3 
REMARK    2  A    between atoms: C_2  and  C_4 
REMARK    3  A    between atoms: C_4  and  C_5 
REMARK    4  A    between atoms: C_5  and  C_6 
REMARK    5  A    between atoms: C_7  and  C_8 
REMARK    6  A    between atoms: C_8  and  C_9 
REMARK    7  A    between atoms: C_9  and  O_11 
REMARK    8  A    between atoms: C_28  and  C_29 
REMARK    9  A    between atoms: C_29  and  C_30 
REMARK   10  A    between atoms: C_30  and  O_32 
REMARK   11  A    between atoms: C_33  and  C_34 
REMARK   12  A    between atoms: C_34  and  C_35 
REMARK   13  A    between atoms: C_35  and  C_36 
REMARK   14  A    between atoms: C_36  and  O_38 
REMARK   15  A    between atoms: C_39  and  C_40 
REMARK   16  A    between atoms: C_40  and  C_41 
REMARK   17  A    between atoms: C_41  and  C_42 
REMARK   18  A    between atoms: C_42  and  O_44 
REMARK   19  A    between atoms: C_45  and  C_46 
REMARK   20  A    between atoms: C_46  and  C_47 
REMARK   21  A    between atoms: C_47  and  O_49 
REMARK   22  A    between atoms: C_50  and  C_51 
REMARK   23  A    between atoms: C_51  and  C_52 
REMARK   24  A    between atoms: C_52  and  O_54 
REMARK   25  A    between atoms: C_55  and  C_56 
REMARK   26  A    between atoms: C_56  and  C_57 
REMARK   27  A    between atoms: C_57  and  C_58 
REMARK   28  A    between atoms: C_58  and  O_60 
ROOT
ATOM      1  O   UNK d   0     -15.456  -6.336   3.249  0.00  0.00    -0.650 OA
ATOM      2  C   UNK d   0     -15.873  -5.160   3.164  0.00  0.00     0.139 C 
ENDROOT
BRANCH   2   3
ATOM      3  O   UNK d   0     -14.969  -4.129   3.078  0.00  0.00    -0.776 OA
ATOM      4  H   UNK d   0     -15.254  -3.203   2.752  0.00  0.00     0.167 HD
ENDBRANCH   2   3
BRANCH   2   5
ATOM      5  C   UNK d   0     -17.338  -4.885   3.156  0.00  0.00     0.115 C 
BRANCH   5   6
ATOM      6  C   UNK d   0     -18.108  -6.176   3.215  0.00  0.00     0.052 C 
BRANCH   6   7
ATOM      7  C   UNK d   0     -19.110  -6.204   4.344  0.00  0.00    -0.020 A 
ATOM      8  C   UNK d   0     -18.922  -6.624   5.569  0.00  0.00    -0.011 A 
ATOM      9  C   UNK d   0     -20.173  -6.465   6.291  0.00  0.00     0.067 A 
ATOM     10  C   UNK d   0     -20.623  -6.698   7.600  0.00  0.00     0.062 C 
ATOM     11  N   UNK d   0     -21.071  -5.947   5.427  0.00  0.00    -0.248 NA
ATOM     12  C   UNK d   0     -21.799  -6.219   8.190  0.00  0.00     0.041 A 
ATOM     13  N   UNK d   0     -23.055  -6.129   7.714  0.00  0.00    -0.355 N 
ATOM     14  C   UNK d   0     -21.736  -5.669   9.483  0.00  0.00    -0.022 A 
ATOM     15  C   UNK d   0     -23.790  -5.528   8.670  0.00  0.00     0.042 A 
ATOM     16  H   UNK d   0     -23.420  -6.499   6.731  0.00  0.00     0.166 HD
ATOM     17  C   UNK d   0     -25.159  -5.192   8.693  0.00  0.00     0.062 C 
ATOM     18  C   UNK d   0     -22.998  -5.225   9.794  0.00  0.00    -0.013 A 
ATOM     19  C   UNK d   0     -25.919  -4.606   7.714  0.00  0.00     0.067 A 
ATOM     20  N   UNK d   0     -25.371  -4.507   6.500  0.00  0.00    -0.248 NA
ATOM     21  C   UNK d   0     -27.243  -4.010   7.636  0.00  0.00    -0.011 A 
ATOM     22  C   UNK d   0     -26.240  -3.888   5.635  0.00  0.00     0.066 A 
ATOM     23  C   UNK d   0     -25.810  -3.754   4.323  0.00  0.00     0.062 C 
ATOM     24  C   UNK d   0     -27.422  -3.588   6.418  0.00  0.00    -0.020 A 
ATOM     25  C   UNK d   0     -24.631  -4.253   3.748  0.00  0.00     0.041 A 
ATOM     26  N   UNK d   0     -23.379  -4.329   4.214  0.00  0.00    -0.355 N 
ATOM     27  C   UNK d   0     -24.696  -4.809   2.451  0.00  0.00    -0.022 A 
ATOM     28  C   UNK d   0     -22.643  -4.919   3.259  0.00  0.00     0.042 A 
ATOM     29  H   UNK d   0     -23.012  -3.947   5.198  0.00  0.00     0.166 HD
ATOM     30  C   UNK d   0     -21.279  -5.252   3.219  0.00  0.00     0.062 C 
ATOM     31  C   UNK d   0     -23.442  -5.233   2.135  0.00  0.00    -0.013 A 
ATOM     32  C   UNK d   0     -20.494  -5.765   4.239  0.00  0.00     0.066 A 
BRANCH   8  33
ATOM     33  C   UNK d   0     -17.675  -7.170   6.135  0.00  0.00     0.151 C 
BRANCH  33  34
ATOM     34  C   UNK d   0     -16.957  -6.197   6.978  0.00  0.00     0.143 C 
ATOM     35  O   UNK d   0     -16.141  -5.407   6.483  0.00  0.00    -0.650 OA
BRANCH  34  36
ATOM     36  O   UNK d   0     -17.197  -6.170   8.332  0.00  0.00    -0.776 OA
ATOM     37  H   UNK d   0     -16.863  -6.923   8.949  0.00  0.00     0.167 HD
ENDBRANCH  34  36
ENDBRANCH  33  34
ENDBRANCH   8  33
BRANCH  31  38
ATOM     38  C   UNK d   0     -23.028  -5.909   0.848  0.00  0.00     0.151 C 
BRANCH  38  39
ATOM     39  C   UNK d   0     -22.109  -5.111   0.065  0.00  0.00     0.143 C 
ATOM     40  O   UNK d   0     -21.091  -5.593  -0.462  0.00  0.00    -0.650 OA
BRANCH  39  41
ATOM     41  O   UNK d   0     -22.361  -3.751  -0.113  0.00  0.00    -0.776 OA
ATOM     42  H   UNK d   0     -23.207  -3.377   0.329  0.00  0.00     0.167 HD
ENDBRANCH  39  41
ENDBRANCH  38  39
ENDBRANCH  31  38
BRANCH  27  43
ATOM     43  C   UNK d   0     -25.878  -4.945   1.524  0.00  0.00     0.052 C 
BRANCH  43  44
ATOM     44  C   UNK d   0     -26.290  -3.652   0.899  0.00  0.00     0.115 C 
BRANCH  44  45
ATOM     45  C   UNK d   0     -25.626  -3.593  -0.429  0.00  0.00     0.139 C 
ATOM     46  O   UNK d   0     -25.756  -4.575  -1.201  0.00  0.00    -0.650 OA
BRANCH  45  47
ATOM     47  O   UNK d   0     -24.883  -2.509  -0.846  0.00  0.00    -0.776 OA
ATOM     48  H   UNK d   0     -25.283  -1.736  -1.402  0.00  0.00     0.167 HD
ENDBRANCH  45  47
ENDBRANCH  44  45
ENDBRANCH  43  44
ENDBRANCH  27  43
BRANCH  24  49
ATOM     49  C   UNK d   0     -28.642  -2.954   5.889  0.00  0.00     0.052 C 
BRANCH  49  50
ATOM     50  C   UNK d   0     -28.492  -1.454   5.880  0.00  0.00     0.115 C 
BRANCH  50  51
ATOM     51  C   UNK d   0     -29.595  -0.672   6.422  0.00  0.00     0.139 C 
ATOM     52  O   UNK d   0     -30.256  -1.038   7.422  0.00  0.00    -0.650 OA
BRANCH  51  53
ATOM     53  O   UNK d   0     -29.946   0.527   5.821  0.00  0.00    -0.776 OA
ATOM     54  H   UNK d   0     -30.706   0.524   5.163  0.00  0.00     0.167 HD
ENDBRANCH  51  53
ENDBRANCH  50  51
ENDBRANCH  49  50
ENDBRANCH  24  49
BRANCH  21  55
ATOM     55  C   UNK d   0     -28.191  -3.928   8.786  0.00  0.00     0.151 C 
BRANCH  55  56
ATOM     56  C   UNK d   0     -27.787  -2.905   9.763  0.00  0.00     0.143 C 
ATOM     57  O   UNK d   0     -27.252  -3.187  10.853  0.00  0.00    -0.650 OA
BRANCH  56  58
ATOM     58  O   UNK d   0     -28.019  -1.570   9.437  0.00  0.00    -0.776 OA
ATOM     59  H   UNK d   0     -27.906  -0.904  10.223  0.00  0.00     0.167 HD
ENDBRANCH  56  58
ENDBRANCH  55  56
ENDBRANCH  21  55
BRANCH  18  60
ATOM     60  C   UNK d   0     -23.384  -4.556  11.089  0.00  0.00     0.151 C 
BRANCH  60  61
ATOM     61  C   UNK d   0     -24.080  -5.581  11.881  0.00  0.00     0.143 C 
ATOM     62  O   UNK d   0     -23.569  -6.512  12.504  0.00  0.00    -0.650 OA
BRANCH  61  63
ATOM     63  O   UNK d   0     -25.491  -5.460  11.915  0.00  0.00    -0.776 OA
ATOM     64  H   UNK d   0     -25.995  -5.056  11.146  0.00  0.00     0.167 HD
ENDBRANCH  61  63
ENDBRANCH  60  61
ENDBRANCH  18  60
BRANCH  14  65
ATOM     65  C   UNK d   0     -20.609  -5.621  10.475  0.00  0.00     0.052 C 
BRANCH  65  66
ATOM     66  C   UNK d   0     -20.131  -6.971  10.877  0.00  0.00     0.115 C 
BRANCH  66  67
ATOM     67  C   UNK d   0     -18.736  -7.180  11.149  0.00  0.00     0.139 C 
ATOM     68  O   UNK d   0     -18.069  -7.954  10.368  0.00  0.00    -0.650 OA
BRANCH  67  69
ATOM     69  O   UNK d   0     -17.978  -6.637  12.185  0.00  0.00    -0.776 OA
ATOM     70  H   UNK d   0     -18.511  -6.285  12.993  0.00  0.00     0.167 HD
ENDBRANCH  67  69
ENDBRANCH  66  67
ENDBRANCH  65  66
ENDBRANCH  14  65
ENDBRANCH   6   7
ENDBRANCH   5   6
ENDBRANCH   2   5
TORSDOF 28
ENDMDL
