MODEL 1
REMARK VINA RESULT:      -8.4      0.000      0.000
REMARK  28 active torsions:
REMARK  status: ('A' for Active; 'I' for Inactive)
REMARK    1  A    between atoms: C1_2  and  O2_3 
REMARK    2  A    between atoms: C1_2  and  C2_4 
REMARK    3  A    between atoms: C2_4  and  C3_5 
REMARK    4  A    between atoms: C3_5  and  C4_6 
REMARK    5  A    between atoms: C5_7  and  C6_8 
REMARK    6  A    between atoms: C6_8  and  C7_9 
REMARK    7  A    between atoms: C7_9  and  O4_11 
REMARK    8  A    between atoms: C20_28  and  C21_29 
REMARK    9  A    between atoms: C21_29  and  C22_30 
REMARK   10  A    between atoms: C22_30  and  O6_32 
REMARK   11  A    between atoms: C23_33  and  C24_34 
REMARK   12  A    between atoms: C24_34  and  C25_35 
REMARK   13  A    between atoms: C25_35  and  C26_36 
REMARK   14  A    between atoms: C26_36  and  O8_38 
REMARK   15  A    between atoms: C27_39  and  C28_40 
REMARK   16  A    between atoms: C28_40  and  C29_41 
REMARK   17  A    between atoms: C29_41  and  O10_43 
REMARK   18  A    between atoms: C30_44  and  C31_45 
REMARK   19  A    between atoms: C31_45  and  C32_46 
REMARK   20  A    between atoms: C32_46  and  C33_47 
REMARK   21  A    between atoms: C33_47  and  O12_49 
REMARK   22  A    between atoms: C34_50  and  C35_51 
REMARK   23  A    between atoms: C35_51  and  C36_52 
REMARK   24  A    between atoms: C36_52  and  O14_54 
REMARK   25  A    between atoms: C37_55  and  C38_56 
REMARK   26  A    between atoms: C38_56  and  C39_57 
REMARK   27  A    between atoms: C39_57  and  C40_58 
REMARK   28  A    between atoms: C40_58  and  O16_60 
ROOT
HETATM    1  O1  UNL     1     -28.346   4.223  -6.292  1.00  0.00    -0.650 OA
HETATM    2  C1  UNL     1     -29.373   4.300  -5.606  1.00  0.00     0.139 C 
ENDROOT
BRANCH   2   3
HETATM    3  O2  UNL     1     -30.352   3.324  -5.804  1.00  0.00    -0.776 OA
HETATM    4  H1  UNL     1     -30.941   2.982  -5.052  1.00  0.00     0.167 HD
ENDBRANCH   2   3
BRANCH   2   5
HETATM    5  C2  UNL     1     -29.598   5.362  -4.606  1.00  0.00     0.115 C 
BRANCH   5   6
HETATM    6  C3  UNL     1     -30.700   6.298  -4.943  1.00  0.00     0.052 C 
BRANCH   6   7
HETATM    7  C4  UNL     1     -31.219   6.967  -3.720  1.00  0.00    -0.020 A 
HETATM    8  C5  UNL     1     -32.147   6.514  -2.873  1.00  0.00    -0.011 A 
HETATM    9  C8  UNL     1     -32.346   7.482  -1.820  1.00  0.00     0.067 A 
HETATM   10  C9  UNL     1     -33.197   7.540  -0.695  1.00  0.00     0.062 C 
HETATM   11  N4  UNL     1     -31.525   8.500  -2.061  1.00  0.00    -0.248 NA
HETATM   12  C10 UNL     1     -33.340   8.642   0.146  1.00  0.00     0.041 A 
HETATM   13  N1  UNL     1     -33.373   9.968  -0.083  1.00  0.00    -0.355 N 
HETATM   14  C37 UNL     1     -33.426   8.403   1.537  1.00  0.00    -0.022 A 
HETATM   15  C11 UNL     1     -33.471  10.579   1.113  1.00  0.00     0.042 A 
HETATM   16  H10 UNL     1     -33.358  10.467  -1.081  1.00  0.00     0.166 HD
HETATM   17  C12 UNL     1     -33.502  11.921   1.499  1.00  0.00     0.062 C 
HETATM   18  C34 UNL     1     -33.507   9.605   2.135  1.00  0.00    -0.013 A 
HETATM   19  C13 UNL     1     -32.692  12.937   0.958  1.00  0.00     0.066 A 
HETATM   20  N2  UNL     1     -31.809  12.616   0.001  1.00  0.00    -0.248 NA
HETATM   21  C30 UNL     1     -32.582  14.355   1.194  1.00  0.00    -0.020 A 
HETATM   22  C14 UNL     1     -31.147  13.721  -0.389  1.00  0.00     0.067 A 
HETATM   23  C15 UNL     1     -30.176  13.609  -1.392  1.00  0.00     0.062 C 
HETATM   24  C27 UNL     1     -31.640  14.858   0.380  1.00  0.00    -0.011 A 
HETATM   25  C16 UNL     1     -29.991  12.530  -2.284  1.00  0.00     0.041 A 
HETATM   26  N3  UNL     1     -30.093  11.211  -2.078  1.00  0.00    -0.355 N 
HETATM   27  C23 UNL     1     -29.695  12.803  -3.642  1.00  0.00    -0.022 A 
HETATM   28  C17 UNL     1     -29.881  10.599  -3.249  1.00  0.00     0.042 A 
HETATM   29  H13 UNL     1     -30.290  10.702  -1.097  1.00  0.00     0.166 HD
HETATM   30  C18 UNL     1     -29.888   9.234  -3.594  1.00  0.00     0.062 C 
HETATM   31  C20 UNL     1     -29.632  11.565  -4.246  1.00  0.00    -0.013 A 
HETATM   32  C19 UNL     1     -30.812   8.263  -3.189  1.00  0.00     0.066 A 
BRANCH   8  33
HETATM   33  C6  UNL     1     -32.842   5.206  -3.020  1.00  0.00     0.151 C 
BRANCH  33  34
HETATM   34  C7  UNL     1     -32.156   4.100  -2.313  1.00  0.00     0.143 C 
HETATM   35  O3  UNL     1     -31.968   4.184  -1.084  1.00  0.00    -0.650 OA
BRANCH  34  36
HETATM   36  O4  UNL     1     -31.748   3.009  -3.048  1.00  0.00    -0.776 OA
HETATM   37  H8  UNL     1     -30.758   2.763  -3.045  1.00  0.00     0.167 HD
ENDBRANCH  34  36
ENDBRANCH  33  34
ENDBRANCH   8  33
BRANCH  31  38
HETATM   38  C21 UNL     1     -29.371  11.325  -5.720  1.00  0.00     0.151 C 
BRANCH  38  39
HETATM   39  C22 UNL     1     -30.458  10.447  -6.213  1.00  0.00     0.143 C 
HETATM   40  O5  UNL     1     -30.167   9.435  -6.886  1.00  0.00    -0.650 OA
BRANCH  39  41
HETATM   41  O6  UNL     1     -31.800  10.691  -5.964  1.00  0.00    -0.776 OA
HETATM   42  H17 UNL     1     -32.539  10.203  -6.486  1.00  0.00     0.167 HD
ENDBRANCH  39  41
ENDBRANCH  38  39
ENDBRANCH  31  38
BRANCH  27  43
HETATM   43  C24 UNL     1     -29.488  14.103  -4.334  1.00  0.00     0.052 C 
BRANCH  43  44
HETATM   44  C25 UNL     1     -28.255  14.774  -3.900  1.00  0.00     0.115 C 
BRANCH  44  45
HETATM   45  C26 UNL     1     -26.987  14.051  -3.951  1.00  0.00     0.139 C 
HETATM   46  O7  UNL     1     -26.356  13.603  -4.902  1.00  0.00    -0.650 OA
BRANCH  45  47
HETATM   47  O8  UNL     1     -26.388  13.831  -2.679  1.00  0.00    -0.776 OA
HETATM   48  H22 UNL     1     -26.641  13.077  -2.089  1.00  0.00     0.167 HD
ENDBRANCH  45  47
ENDBRANCH  44  45
ENDBRANCH  43  44
ENDBRANCH  27  43
BRANCH  24  49
HETATM   49  C28 UNL     1     -31.184  16.279   0.266  1.00  0.00     0.151 C 
BRANCH  49  50
HETATM   50  C29 UNL     1     -31.512  16.835  -1.070  1.00  0.00     0.143 C 
HETATM   51  O9  UNL     1     -32.708  17.096  -1.334  1.00  0.00    -0.650 OA
BRANCH  50  52
HETATM   52  O10 UNL     1     -30.560  17.079  -2.043  1.00  0.00    -0.776 OA
HETATM   53  H25 UNL     1     -30.336  16.384  -2.767  1.00  0.00     0.167 HD
ENDBRANCH  50  52
ENDBRANCH  49  50
ENDBRANCH  24  49
BRANCH  21  54
HETATM   54  C31 UNL     1     -33.379  15.167   2.158  1.00  0.00     0.052 C 
BRANCH  54  55
HETATM   55  C32 UNL     1     -34.838  15.207   1.875  1.00  0.00     0.115 C 
BRANCH  55  56
HETATM   56  C33 UNL     1     -35.052  16.364   0.932  1.00  0.00     0.139 C 
HETATM   57  O11 UNL     1     -36.011  16.367   0.120  1.00  0.00    -0.650 OA
BRANCH  56  58
HETATM   58  O12 UNL     1     -34.206  17.466   0.922  1.00  0.00    -0.776 OA
HETATM   59  H30 UNL     1     -33.723  17.640   0.037  1.00  0.00     0.167 HD
ENDBRANCH  56  58
ENDBRANCH  55  56
ENDBRANCH  54  55
ENDBRANCH  21  54
BRANCH  18  60
HETATM   60  C35 UNL     1     -33.632   9.775   3.620  1.00  0.00     0.151 C 
BRANCH  60  61
HETATM   61  C36 UNL     1     -35.029  10.104   3.911  1.00  0.00     0.143 C 
HETATM   62  O13 UNL     1     -35.930   9.242   3.711  1.00  0.00    -0.650 OA
BRANCH  61  63
HETATM   63  O14 UNL     1     -35.422  11.340   4.408  1.00  0.00    -0.776 OA
HETATM   64  H33 UNL     1     -34.975  12.167   4.048  1.00  0.00     0.167 HD
ENDBRANCH  61  63
ENDBRANCH  60  61
ENDBRANCH  18  60
BRANCH  14  65
HETATM   65  C38 UNL     1     -33.453   7.103   2.287  1.00  0.00     0.052 C 
BRANCH  65  66
HETATM   66  C39 UNL     1     -32.081   6.803   2.816  1.00  0.00     0.115 C 
BRANCH  66  67
HETATM   67  C40 UNL     1     -32.231   6.015   4.096  1.00  0.00     0.139 C 
HETATM   68  O15 UNL     1     -31.800   4.834   4.170  1.00  0.00    -0.650 OA
BRANCH  67  69
HETATM   69  O16 UNL     1     -32.834   6.571   5.189  1.00  0.00    -0.776 OA
HETATM   70  H38 UNL     1     -33.337   6.013   5.858  1.00  0.00     0.167 HD
ENDBRANCH  67  69
ENDBRANCH  66  67
ENDBRANCH  65  66
ENDBRANCH  14  65
ENDBRANCH   6   7
ENDBRANCH   5   6
ENDBRANCH   2   5
TORSDOF 28
ENDMDL
MODEL 2
REMARK VINA RESULT:      -8.3      1.563      8.418
REMARK  28 active torsions:
REMARK  status: ('A' for Active; 'I' for Inactive)
REMARK    1  A    between atoms: C1_2  and  O2_3 
REMARK    2  A    between atoms: C1_2  and  C2_4 
REMARK    3  A    between atoms: C2_4  and  C3_5 
REMARK    4  A    between atoms: C3_5  and  C4_6 
REMARK    5  A    between atoms: C5_7  and  C6_8 
REMARK    6  A    between atoms: C6_8  and  C7_9 
REMARK    7  A    between atoms: C7_9  and  O4_11 
REMARK    8  A    between atoms: C20_28  and  C21_29 
REMARK    9  A    between atoms: C21_29  and  C22_30 
REMARK   10  A    between atoms: C22_30  and  O6_32 
REMARK   11  A    between atoms: C23_33  and  C24_34 
REMARK   12  A    between atoms: C24_34  and  C25_35 
REMARK   13  A    between atoms: C25_35  and  C26_36 
REMARK   14  A    between atoms: C26_36  and  O8_38 
REMARK   15  A    between atoms: C27_39  and  C28_40 
REMARK   16  A    between atoms: C28_40  and  C29_41 
REMARK   17  A    between atoms: C29_41  and  O10_43 
REMARK   18  A    between atoms: C30_44  and  C31_45 
REMARK   19  A    between atoms: C31_45  and  C32_46 
REMARK   20  A    between atoms: C32_46  and  C33_47 
REMARK   21  A    between atoms: C33_47  and  O12_49 
REMARK   22  A    between atoms: C34_50  and  C35_51 
REMARK   23  A    between atoms: C35_51  and  C36_52 
REMARK   24  A    between atoms: C36_52  and  O14_54 
REMARK   25  A    between atoms: C37_55  and  C38_56 
REMARK   26  A    between atoms: C38_56  and  C39_57 
REMARK   27  A    between atoms: C39_57  and  C40_58 
REMARK   28  A    between atoms: C40_58  and  O16_60 
ROOT
HETATM    1  O1  UNL     1     -26.344  13.359  -3.528  1.00  0.00    -0.650 OA
HETATM    2  C1  UNL     1     -26.870  14.112  -4.357  1.00  0.00     0.139 C 
ENDROOT
BRANCH   2   3
HETATM    3  O2  UNL     1     -26.318  15.386  -4.509  1.00  0.00    -0.776 OA
HETATM    4  H1  UNL     1     -26.858  16.234  -4.377  1.00  0.00     0.167 HD
ENDBRANCH   2   3
BRANCH   2   5
HETATM    5  C2  UNL     1     -28.032  13.722  -5.178  1.00  0.00     0.115 C 
BRANCH   5   6
HETATM    6  C3  UNL     1     -29.268  14.497  -4.900  1.00  0.00     0.052 C 
BRANCH   6   7
HETATM    7  C4  UNL     1     -29.819  14.150  -3.562  1.00  0.00    -0.020 A 
HETATM    8  C5  UNL     1     -29.764  14.877  -2.443  1.00  0.00    -0.011 A 
HETATM    9  C8  UNL     1     -30.428  14.164  -1.377  1.00  0.00     0.067 A 
HETATM   10  C9  UNL     1     -30.650  14.437  -0.010  1.00  0.00     0.062 C 
HETATM   11  N4  UNL     1     -30.870  13.018  -1.886  1.00  0.00    -0.248 NA
HETATM   12  C10 UNL     1     -31.206  13.546   0.906  1.00  0.00     0.041 A 
HETATM   13  N1  UNL     1     -31.079  12.217   1.080  1.00  0.00    -0.355 N 
HETATM   14  C37 UNL     1     -32.136  14.056   1.841  1.00  0.00    -0.022 A 
HETATM   15  C11 UNL     1     -31.898  11.865   2.088  1.00  0.00     0.042 A 
HETATM   16  H10 UNL     1     -30.395  11.539   0.517  1.00  0.00     0.166 HD
HETATM   17  C12 UNL     1     -32.217  10.638   2.675  1.00  0.00     0.062 C 
HETATM   18  C34 UNL     1     -32.564  13.012   2.573  1.00  0.00    -0.013 A 
HETATM   19  C13 UNL     1     -32.435   9.438   1.973  1.00  0.00     0.066 A 
HETATM   20  N2  UNL     1     -32.345   9.449   0.636  1.00  0.00    -0.248 NA
HETATM   21  C30 UNL     1     -32.747   8.090   2.378  1.00  0.00    -0.020 A 
HETATM   22  C14 UNL     1     -32.574   8.211   0.160  1.00  0.00     0.067 A 
HETATM   23  C15 UNL     1     -32.520   7.998  -1.224  1.00  0.00     0.062 C 
HETATM   24  C27 UNL     1     -32.838   7.318   1.283  1.00  0.00    -0.011 A 
HETATM   25  C16 UNL     1     -31.957   8.851  -2.198  1.00  0.00     0.041 A 
HETATM   26  N3  UNL     1     -31.975  10.187  -2.290  1.00  0.00    -0.355 N 
HETATM   27  C23 UNL     1     -31.198   8.287  -3.252  1.00  0.00    -0.022 A 
HETATM   28  C17 UNL     1     -31.251  10.530  -3.363  1.00  0.00     0.042 A 
HETATM   29  H13 UNL     1     -32.520  10.896  -1.612  1.00  0.00     0.166 HD
HETATM   30  C18 UNL     1     -30.936  11.792  -3.901  1.00  0.00     0.062 C 
HETATM   31  C20 UNL     1     -30.751   9.366  -3.983  1.00  0.00    -0.013 A 
HETATM   32  C19 UNL     1     -30.542  12.937  -3.199  1.00  0.00     0.066 A 
BRANCH   8  33
HETATM   33  C6  UNL     1     -29.116  16.214  -2.349  1.00  0.00     0.151 C 
BRANCH  33  34
HETATM   34  C7  UNL     1     -30.059  17.292  -1.970  1.00  0.00     0.143 C 
HETATM   35  O3  UNL     1     -29.610  18.394  -1.599  1.00  0.00    -0.650 OA
BRANCH  34  36
HETATM   36  O4  UNL     1     -31.410  17.034  -2.042  1.00  0.00    -0.776 OA
HETATM   37  H8  UNL     1     -31.976  17.578  -2.693  1.00  0.00     0.167 HD
ENDBRANCH  34  36
ENDBRANCH  33  34
ENDBRANCH   8  33
BRANCH  31  38
HETATM   38  C21 UNL     1     -29.861   9.282  -5.208  1.00  0.00     0.151 C 
BRANCH  38  39
HETATM   39  C22 UNL     1     -30.748   9.057  -6.372  1.00  0.00     0.143 C 
HETATM   40  O5  UNL     1     -30.276   8.539  -7.407  1.00  0.00    -0.650 OA
BRANCH  39  41
HETATM   41  O6  UNL     1     -32.093   9.394  -6.376  1.00  0.00    -0.776 OA
HETATM   42  H17 UNL     1     -32.799   8.772  -6.789  1.00  0.00     0.167 HD
ENDBRANCH  39  41
ENDBRANCH  38  39
ENDBRANCH  31  38
BRANCH  27  43
HETATM   43  C24 UNL     1     -30.904   6.862  -3.563  1.00  0.00     0.052 C 
BRANCH  43  44
HETATM   44  C25 UNL     1     -32.079   5.998  -3.381  1.00  0.00     0.115 C 
BRANCH  44  45
HETATM   45  C26 UNL     1     -31.916   4.681  -2.773  1.00  0.00     0.139 C 
HETATM   46  O7  UNL     1     -32.051   4.311  -1.611  1.00  0.00    -0.650 OA
BRANCH  45  47
HETATM   47  O8  UNL     1     -31.535   3.658  -3.686  1.00  0.00    -0.776 OA
HETATM   48  H22 UNL     1     -31.121   2.806  -3.397  1.00  0.00     0.167 HD
ENDBRANCH  45  47
ENDBRANCH  44  45
ENDBRANCH  43  44
ENDBRANCH  27  43
BRANCH  24  49
HETATM   49  C28 UNL     1     -33.136   5.853   1.210  1.00  0.00     0.151 C 
BRANCH  49  50
HETATM   50  C29 UNL     1     -34.446   5.548   1.837  1.00  0.00     0.143 C 
HETATM   51  O9  UNL     1     -34.641   4.396   2.287  1.00  0.00    -0.650 OA
BRANCH  50  52
HETATM   52  O10 UNL     1     -35.467   6.475   1.948  1.00  0.00    -0.776 OA
HETATM   53  H25 UNL     1     -35.709   7.109   1.175  1.00  0.00     0.167 HD
ENDBRANCH  50  52
ENDBRANCH  49  50
ENDBRANCH  24  49
BRANCH  21  54
HETATM   54  C31 UNL     1     -32.924   7.592   3.772  1.00  0.00     0.052 C 
BRANCH  54  55
HETATM   55  C32 UNL     1     -31.730   6.916   4.345  1.00  0.00     0.115 C 
BRANCH  55  56
HETATM   56  C33 UNL     1     -32.101   5.461   4.494  1.00  0.00     0.139 C 
HETATM   57  O11 UNL     1     -33.172   5.121   5.054  1.00  0.00    -0.650 OA
BRANCH  56  58
HETATM   58  O12 UNL     1     -31.279   4.446   4.021  1.00  0.00    -0.776 OA
HETATM   59  H30 UNL     1     -30.280   4.666   3.995  1.00  0.00     0.167 HD
ENDBRANCH  56  58
ENDBRANCH  55  56
ENDBRANCH  54  55
ENDBRANCH  21  54
BRANCH  18  60
HETATM   60  C35 UNL     1     -33.553  13.148   3.693  1.00  0.00     0.151 C 
BRANCH  60  61
HETATM   61  C36 UNL     1     -34.873  12.802   3.161  1.00  0.00     0.143 C 
HETATM   62  O13 UNL     1     -35.175  11.590   2.975  1.00  0.00    -0.650 OA
BRANCH  61  63
HETATM   63  O14 UNL     1     -35.831  13.757   2.845  1.00  0.00    -0.776 OA
HETATM   64  H33 UNL     1     -36.447  13.582   2.069  1.00  0.00     0.167 HD
ENDBRANCH  61  63
ENDBRANCH  60  61
ENDBRANCH  18  60
BRANCH  14  65
HETATM   65  C38 UNL     1     -32.596  15.467   2.063  1.00  0.00     0.052 C 
BRANCH  65  66
HETATM   66  C39 UNL     1     -33.798  15.740   1.207  1.00  0.00     0.115 C 
BRANCH  66  67
HETATM   67  C40 UNL     1     -33.471  16.892   0.286  1.00  0.00     0.139 C 
HETATM   68  O15 UNL     1     -34.112  17.052  -0.785  1.00  0.00    -0.650 OA
BRANCH  67  69
HETATM   69  O16 UNL     1     -32.476  17.775   0.603  1.00  0.00    -0.776 OA
HETATM   70  H38 UNL     1     -32.332  18.095   1.546  1.00  0.00     0.167 HD
ENDBRANCH  67  69
ENDBRANCH  66  67
ENDBRANCH  65  66
ENDBRANCH  14  65
ENDBRANCH   6   7
ENDBRANCH   5   6
ENDBRANCH   2   5
TORSDOF 28
ENDMDL
MODEL 3
REMARK VINA RESULT:      -8.1      2.027      8.575
REMARK  28 active torsions:
REMARK  status: ('A' for Active; 'I' for Inactive)
REMARK    1  A    between atoms: C1_2  and  O2_3 
REMARK    2  A    between atoms: C1_2  and  C2_4 
REMARK    3  A    between atoms: C2_4  and  C3_5 
REMARK    4  A    between atoms: C3_5  and  C4_6 
REMARK    5  A    between atoms: C5_7  and  C6_8 
REMARK    6  A    between atoms: C6_8  and  C7_9 
REMARK    7  A    between atoms: C7_9  and  O4_11 
REMARK    8  A    between atoms: C20_28  and  C21_29 
REMARK    9  A    between atoms: C21_29  and  C22_30 
REMARK   10  A    between atoms: C22_30  and  O6_32 
REMARK   11  A    between atoms: C23_33  and  C24_34 
REMARK   12  A    between atoms: C24_34  and  C25_35 
REMARK   13  A    between atoms: C25_35  and  C26_36 
REMARK   14  A    between atoms: C26_36  and  O8_38 
REMARK   15  A    between atoms: C27_39  and  C28_40 
REMARK   16  A    between atoms: C28_40  and  C29_41 
REMARK   17  A    between atoms: C29_41  and  O10_43 
REMARK   18  A    between atoms: C30_44  and  C31_45 
REMARK   19  A    between atoms: C31_45  and  C32_46 
REMARK   20  A    between atoms: C32_46  and  C33_47 
REMARK   21  A    between atoms: C33_47  and  O12_49 
REMARK   22  A    between atoms: C34_50  and  C35_51 
REMARK   23  A    between atoms: C35_51  and  C36_52 
REMARK   24  A    between atoms: C36_52  and  O14_54 
REMARK   25  A    between atoms: C37_55  and  C38_56 
REMARK   26  A    between atoms: C38_56  and  C39_57 
REMARK   27  A    between atoms: C39_57  and  C40_58 
REMARK   28  A    between atoms: C40_58  and  O16_60 
ROOT
HETATM    1  O1  UNL     1     -28.900  17.223  -8.400  1.00  0.00    -0.650 OA
HETATM    2  C1  UNL     1     -28.527  16.696  -7.345  1.00  0.00     0.139 C 
ENDROOT
BRANCH   2   3
HETATM    3  O2  UNL     1     -27.180  16.829  -7.002  1.00  0.00    -0.776 OA
HETATM    4  H1  UNL     1     -26.809  17.663  -6.559  1.00  0.00     0.167 HD
ENDBRANCH   2   3
BRANCH   2   5
HETATM    5  C2  UNL     1     -29.434  15.949  -6.451  1.00  0.00     0.115 C 
BRANCH   5   6
HETATM    6  C3  UNL     1     -28.836  14.731  -5.849  1.00  0.00     0.052 C 
BRANCH   6   7
HETATM    7  C4  UNL     1     -29.391  14.484  -4.492  1.00  0.00    -0.020 A 
HETATM    8  C5  UNL     1     -29.312  15.277  -3.420  1.00  0.00    -0.011 A 
HETATM    9  C8  UNL     1     -29.991  14.651  -2.311  1.00  0.00     0.067 A 
HETATM   10  C9  UNL     1     -30.200  15.015  -0.963  1.00  0.00     0.062 C 
HETATM   11  N4  UNL     1     -30.466  13.488  -2.746  1.00  0.00    -0.248 NA
HETATM   12  C10 UNL     1     -30.777  14.198   0.008  1.00  0.00     0.041 A 
HETATM   13  N1  UNL     1     -30.685  12.880   0.265  1.00  0.00    -0.355 N 
HETATM   14  C37 UNL     1     -31.689  14.791   0.911  1.00  0.00    -0.022 A 
HETATM   15  C11 UNL     1     -31.511  12.614   1.295  1.00  0.00     0.042 A 
HETATM   16  H10 UNL     1     -30.022  12.149  -0.256  1.00  0.00     0.166 HD
HETATM   17  C12 UNL     1     -31.860  11.436   1.958  1.00  0.00     0.062 C 
HETATM   18  C34 UNL     1     -32.143  13.807   1.708  1.00  0.00    -0.013 A 
HETATM   19  C13 UNL     1     -32.113  10.201   1.333  1.00  0.00     0.066 A 
HETATM   20  N2  UNL     1     -32.028  10.125  -0.002  1.00  0.00    -0.248 NA
HETATM   21  C30 UNL     1     -32.460   8.889   1.823  1.00  0.00    -0.020 A 
HETATM   22  C14 UNL     1     -32.292   8.866  -0.399  1.00  0.00     0.067 A 
HETATM   23  C15 UNL     1     -32.249   8.566  -1.767  1.00  0.00     0.062 C 
HETATM   24  C27 UNL     1     -32.576   8.053   0.778  1.00  0.00    -0.011 A 
HETATM   25  C16 UNL     1     -31.667   9.341  -2.794  1.00  0.00     0.041 A 
HETATM   26  N3  UNL     1     -31.648  10.668  -2.970  1.00  0.00    -0.355 N 
HETATM   27  C23 UNL     1     -30.927   8.691  -3.812  1.00  0.00    -0.022 A 
HETATM   28  C17 UNL     1     -30.920  10.923  -4.063  1.00  0.00     0.042 A 
HETATM   29  H13 UNL     1     -32.172  11.432  -2.336  1.00  0.00     0.166 HD
HETATM   30  C18 UNL     1     -30.573  12.140  -4.680  1.00  0.00     0.062 C 
HETATM   31  C20 UNL     1     -30.454   9.709  -4.610  1.00  0.00    -0.013 A 
HETATM   32  C19 UNL     1     -30.145  13.316  -4.052  1.00  0.00     0.066 A 
BRANCH   8  33
HETATM   33  C6  UNL     1     -28.628  16.599  -3.411  1.00  0.00     0.151 C 
BRANCH  33  34
HETATM   34  C7  UNL     1     -27.153  16.491  -3.498  1.00  0.00     0.143 C 
HETATM   35  O3  UNL     1     -26.512  17.367  -4.111  1.00  0.00    -0.650 OA
BRANCH  34  36
HETATM   36  O4  UNL     1     -26.540  15.417  -2.893  1.00  0.00    -0.776 OA
HETATM   37  H8  UNL     1     -25.723  15.589  -2.307  1.00  0.00     0.167 HD
ENDBRANCH  34  36
ENDBRANCH  33  34
ENDBRANCH   8  33
BRANCH  31  38
HETATM   38  C21 UNL     1     -29.571   9.525  -5.829  1.00  0.00     0.151 C 
BRANCH  38  39
HETATM   39  C22 UNL     1     -30.380   8.813  -6.845  1.00  0.00     0.143 C 
HETATM   40  O5  UNL     1     -31.555   9.183  -7.058  1.00  0.00    -0.650 OA
BRANCH  39  41
HETATM   41  O6  UNL     1     -29.897   7.745  -7.584  1.00  0.00    -0.776 OA
HETATM   42  H17 UNL     1     -29.032   7.257  -7.318  1.00  0.00     0.167 HD
ENDBRANCH  39  41
ENDBRANCH  38  39
ENDBRANCH  31  38
BRANCH  27  43
HETATM   43  C24 UNL     1     -30.673   7.242  -4.033  1.00  0.00     0.052 C 
BRANCH  43  44
HETATM   44  C25 UNL     1     -31.736   6.398  -3.470  1.00  0.00     0.115 C 
BRANCH  44  45
HETATM   45  C26 UNL     1     -31.429   5.028  -3.067  1.00  0.00     0.139 C 
HETATM   46  O7  UNL     1     -31.528   4.471  -1.979  1.00  0.00    -0.650 OA
BRANCH  45  47
HETATM   47  O8  UNL     1     -30.929   4.207  -4.116  1.00  0.00    -0.776 OA
HETATM   48  H22 UNL     1     -31.501   3.864  -4.849  1.00  0.00     0.167 HD
ENDBRANCH  45  47
ENDBRANCH  44  45
ENDBRANCH  43  44
ENDBRANCH  27  43
BRANCH  24  49
HETATM   49  C28 UNL     1     -32.914   6.595   0.797  1.00  0.00     0.151 C 
BRANCH  49  50
HETATM   50  C29 UNL     1     -34.223   6.364   1.457  1.00  0.00     0.143 C 
HETATM   51  O9  UNL     1     -35.164   7.153   1.215  1.00  0.00    -0.650 OA
BRANCH  50  52
HETATM   52  O10 UNL     1     -34.456   5.317   2.331  1.00  0.00    -0.776 OA
HETATM   53  H25 UNL     1     -34.926   5.461   3.234  1.00  0.00     0.167 HD
ENDBRANCH  50  52
ENDBRANCH  49  50
ENDBRANCH  24  49
BRANCH  21  54
HETATM   54  C31 UNL     1     -32.646   8.484   3.245  1.00  0.00     0.052 C 
BRANCH  54  55
HETATM   55  C32 UNL     1     -31.512   7.716   3.823  1.00  0.00     0.115 C 
BRANCH  55  56
HETATM   56  C33 UNL     1     -32.111   6.468   4.422  1.00  0.00     0.139 C 
HETATM   57  O11 UNL     1     -32.858   6.529   5.430  1.00  0.00    -0.650 OA
BRANCH  56  58
HETATM   58  O12 UNL     1     -31.864   5.210   3.888  1.00  0.00    -0.776 OA
HETATM   59  H30 UNL     1     -31.226   4.620   4.430  1.00  0.00     0.167 HD
ENDBRANCH  56  58
ENDBRANCH  55  56
ENDBRANCH  54  55
ENDBRANCH  21  54
BRANCH  18  60
HETATM   60  C35 UNL     1     -33.124  14.040   2.819  1.00  0.00     0.151 C 
BRANCH  60  61
HETATM   61  C36 UNL     1     -32.402  13.894   4.085  1.00  0.00     0.143 C 
HETATM   62  O13 UNL     1     -32.825  13.082   4.956  1.00  0.00    -0.650 OA
BRANCH  61  63
HETATM   63  O14 UNL     1     -31.253  14.613   4.382  1.00  0.00    -0.776 OA
HETATM   64  H33 UNL     1     -30.401  14.381   3.898  1.00  0.00     0.167 HD
ENDBRANCH  61  63
ENDBRANCH  60  61
ENDBRANCH  18  60
BRANCH  14  65
HETATM   65  C38 UNL     1     -32.111  16.225   1.045  1.00  0.00     0.052 C 
BRANCH  65  66
HETATM   66  C39 UNL     1     -33.467  16.406   0.430  1.00  0.00     0.115 C 
BRANCH  66  67
HETATM   67  C40 UNL     1     -33.315  17.262  -0.806  1.00  0.00     0.139 C 
HETATM   68  O15 UNL     1     -32.252  17.906  -1.007  1.00  0.00    -0.650 OA
BRANCH  67  69
HETATM   69  O16 UNL     1     -34.327  17.349  -1.721  1.00  0.00    -0.776 OA
HETATM   70  H38 UNL     1     -34.190  17.104  -2.687  1.00  0.00     0.167 HD
ENDBRANCH  67  69
ENDBRANCH  66  67
ENDBRANCH  65  66
ENDBRANCH  14  65
ENDBRANCH   6   7
ENDBRANCH   5   6
ENDBRANCH   2   5
TORSDOF 28
ENDMDL
MODEL 4
REMARK VINA RESULT:      -8.0      1.840      8.291
REMARK  28 active torsions:
REMARK  status: ('A' for Active; 'I' for Inactive)
REMARK    1  A    between atoms: C1_2  and  O2_3 
REMARK    2  A    between atoms: C1_2  and  C2_4 
REMARK    3  A    between atoms: C2_4  and  C3_5 
REMARK    4  A    between atoms: C3_5  and  C4_6 
REMARK    5  A    between atoms: C5_7  and  C6_8 
REMARK    6  A    between atoms: C6_8  and  C7_9 
REMARK    7  A    between atoms: C7_9  and  O4_11 
REMARK    8  A    between atoms: C20_28  and  C21_29 
REMARK    9  A    between atoms: C21_29  and  C22_30 
REMARK   10  A    between atoms: C22_30  and  O6_32 
REMARK   11  A    between atoms: C23_33  and  C24_34 
REMARK   12  A    between atoms: C24_34  and  C25_35 
REMARK   13  A    between atoms: C25_35  and  C26_36 
REMARK   14  A    between atoms: C26_36  and  O8_38 
REMARK   15  A    between atoms: C27_39  and  C28_40 
REMARK   16  A    between atoms: C28_40  and  C29_41 
REMARK   17  A    between atoms: C29_41  and  O10_43 
REMARK   18  A    between atoms: C30_44  and  C31_45 
REMARK   19  A    between atoms: C31_45  and  C32_46 
REMARK   20  A    between atoms: C32_46  and  C33_47 
REMARK   21  A    between atoms: C33_47  and  O12_49 
REMARK   22  A    between atoms: C34_50  and  C35_51 
REMARK   23  A    between atoms: C35_51  and  C36_52 
REMARK   24  A    between atoms: C36_52  and  O14_54 
REMARK   25  A    between atoms: C37_55  and  C38_56 
REMARK   26  A    between atoms: C38_56  and  C39_57 
REMARK   27  A    between atoms: C39_57  and  C40_58 
REMARK   28  A    between atoms: C40_58  and  O16_60 
ROOT
HETATM    1  O1  UNL     1     -28.234  16.461  -8.330  1.00  0.00    -0.650 OA
HETATM    2  C1  UNL     1     -28.632  16.721  -7.188  1.00  0.00     0.139 C 
ENDROOT
BRANCH   2   3
HETATM    3  O2  UNL     1     -28.283  17.964  -6.654  1.00  0.00    -0.776 OA
HETATM    4  H1  UNL     1     -28.472  18.215  -5.690  1.00  0.00     0.167 HD
ENDBRANCH   2   3
BRANCH   2   5
HETATM    5  C2  UNL     1     -29.446  15.788  -6.385  1.00  0.00     0.115 C 
BRANCH   5   6
HETATM    6  C3  UNL     1     -28.656  14.820  -5.581  1.00  0.00     0.052 C 
BRANCH   6   7
HETATM    7  C4  UNL     1     -29.290  14.593  -4.255  1.00  0.00    -0.020 A 
HETATM    8  C5  UNL     1     -29.264  15.396  -3.188  1.00  0.00    -0.011 A 
HETATM    9  C8  UNL     1     -30.011  14.788  -2.113  1.00  0.00     0.067 A 
HETATM   10  C9  UNL     1     -30.292  15.167  -0.783  1.00  0.00     0.062 C 
HETATM   11  N4  UNL     1     -30.474  13.626  -2.564  1.00  0.00    -0.248 NA
HETATM   12  C10 UNL     1     -30.932  14.366   0.161  1.00  0.00     0.041 A 
HETATM   13  N1  UNL     1     -30.870  13.049   0.436  1.00  0.00    -0.355 N 
HETATM   14  C37 UNL     1     -31.887  14.978   1.006  1.00  0.00    -0.022 A 
HETATM   15  C11 UNL     1     -31.756  12.803   1.419  1.00  0.00     0.042 A 
HETATM   16  H10 UNL     1     -30.187  12.307  -0.041  1.00  0.00     0.166 HD
HETATM   17  C12 UNL     1     -32.155  11.635   2.072  1.00  0.00     0.062 C 
HETATM   18  C34 UNL     1     -32.397  14.007   1.785  1.00  0.00    -0.013 A 
HETATM   19  C13 UNL     1     -32.387  10.397   1.445  1.00  0.00     0.066 A 
HETATM   20  N2  UNL     1     -32.227  10.307   0.117  1.00  0.00    -0.248 NA
HETATM   21  C30 UNL     1     -32.776   9.094   1.926  1.00  0.00    -0.020 A 
HETATM   22  C14 UNL     1     -32.482   9.048  -0.283  1.00  0.00     0.067 A 
HETATM   23  C15 UNL     1     -32.366   8.733  -1.643  1.00  0.00     0.062 C 
HETATM   24  C27 UNL     1     -32.842   8.249   0.883  1.00  0.00    -0.011 A 
HETATM   25  C16 UNL     1     -31.718   9.492  -2.642  1.00  0.00     0.041 A 
HETATM   26  N3  UNL     1     -31.674  10.817  -2.829  1.00  0.00    -0.355 N 
HETATM   27  C23 UNL     1     -30.929   8.824  -3.611  1.00  0.00    -0.022 A 
HETATM   28  C17 UNL     1     -30.882  11.053  -3.881  1.00  0.00     0.042 A 
HETATM   29  H13 UNL     1     -32.224  11.593  -2.233  1.00  0.00     0.166 HD
HETATM   30  C18 UNL     1     -30.487  12.260  -4.489  1.00  0.00     0.062 C 
HETATM   31  C20 UNL     1     -30.400   9.829  -4.390  1.00  0.00    -0.013 A 
HETATM   32  C19 UNL     1     -30.081  13.438  -3.848  1.00  0.00     0.066 A 
BRANCH   8  33
HETATM   33  C6  UNL     1     -28.566  16.711  -3.152  1.00  0.00     0.151 C 
BRANCH  33  34
HETATM   34  C7  UNL     1     -27.118  16.609  -3.450  1.00  0.00     0.143 C 
HETATM   35  O3  UNL     1     -26.599  17.418  -4.243  1.00  0.00    -0.650 OA
BRANCH  34  36
HETATM   36  O4  UNL     1     -26.392  15.614  -2.833  1.00  0.00    -0.776 OA
HETATM   37  H8  UNL     1     -26.770  14.667  -2.828  1.00  0.00     0.167 HD
ENDBRANCH  34  36
ENDBRANCH  33  34
ENDBRANCH   8  33
BRANCH  31  38
HETATM   38  C21 UNL     1     -29.451   9.624  -5.555  1.00  0.00     0.151 C 
BRANCH  38  39
HETATM   39  C22 UNL     1     -30.279   9.257  -6.727  1.00  0.00     0.143 C 
HETATM   40  O5  UNL     1     -29.719   8.834  -7.762  1.00  0.00    -0.650 OA
BRANCH  39  41
HETATM   41  O6  UNL     1     -31.662   9.358  -6.738  1.00  0.00    -0.776 OA
HETATM   42  H17 UNL     1     -32.235   8.935  -5.997  1.00  0.00     0.167 HD
ENDBRANCH  39  41
ENDBRANCH  38  39
ENDBRANCH  31  38
BRANCH  27  43
HETATM   43  C24 UNL     1     -30.679   7.370  -3.804  1.00  0.00     0.052 C 
BRANCH  43  44
HETATM   44  C25 UNL     1     -31.890   6.564  -3.591  1.00  0.00     0.115 C 
BRANCH  44  45
HETATM   45  C26 UNL     1     -31.778   5.254  -2.957  1.00  0.00     0.139 C 
HETATM   46  O7  UNL     1     -32.084   4.879  -1.830  1.00  0.00    -0.650 OA
BRANCH  45  47
HETATM   47  O8  UNL     1     -31.217   4.246  -3.791  1.00  0.00    -0.776 OA
HETATM   48  H22 UNL     1     -30.345   3.816  -3.603  1.00  0.00     0.167 HD
ENDBRANCH  45  47
ENDBRANCH  44  45
ENDBRANCH  43  44
ENDBRANCH  27  43
BRANCH  24  49
HETATM   49  C28 UNL     1     -33.197   6.795   0.897  1.00  0.00     0.151 C 
BRANCH  49  50
HETATM   50  C29 UNL     1     -32.442   6.075   1.952  1.00  0.00     0.143 C 
HETATM   51  O9  UNL     1     -33.049   5.242   2.662  1.00  0.00    -0.650 OA
BRANCH  50  52
HETATM   52  O10 UNL     1     -31.095   6.279   2.192  1.00  0.00    -0.776 OA
HETATM   53  H25 UNL     1     -30.585   5.739   2.904  1.00  0.00     0.167 HD
ENDBRANCH  50  52
ENDBRANCH  49  50
ENDBRANCH  24  49
BRANCH  21  54
HETATM   54  C31 UNL     1     -33.046   8.705   3.339  1.00  0.00     0.052 C 
BRANCH  54  55
HETATM   55  C32 UNL     1     -34.290   9.284   3.913  1.00  0.00     0.115 C 
BRANCH  55  56
HETATM   56  C33 UNL     1     -35.372   9.059   2.886  1.00  0.00     0.139 C 
HETATM   57  O11 UNL     1     -35.935   7.942   2.774  1.00  0.00    -0.650 OA
BRANCH  56  58
HETATM   58  O12 UNL     1     -35.786  10.070   2.028  1.00  0.00    -0.776 OA
HETATM   59  H30 UNL     1     -35.936  10.984   2.466  1.00  0.00     0.167 HD
ENDBRANCH  56  58
ENDBRANCH  55  56
ENDBRANCH  54  55
ENDBRANCH  21  54
BRANCH  18  60
HETATM   60  C35 UNL     1     -33.436  14.261   2.836  1.00  0.00     0.151 C 
BRANCH  60  61
HETATM   61  C36 UNL     1     -34.738  13.912   2.263  1.00  0.00     0.143 C 
HETATM   62  O13 UNL     1     -35.097  12.702   2.217  1.00  0.00    -0.650 OA
BRANCH  61  63
HETATM   63  O14 UNL     1     -35.618  14.862   1.761  1.00  0.00    -0.776 OA
HETATM   64  H33 UNL     1     -36.229  15.338   2.403  1.00  0.00     0.167 HD
ENDBRANCH  61  63
ENDBRANCH  60  61
ENDBRANCH  18  60
BRANCH  14  65
HETATM   65  C38 UNL     1     -32.299  16.418   1.103  1.00  0.00     0.052 C 
BRANCH  65  66
HETATM   66  C39 UNL     1     -32.477  16.980  -0.277  1.00  0.00     0.115 C 
BRANCH  66  67
HETATM   67  C40 UNL     1     -33.958  17.098  -0.552  1.00  0.00     0.139 C 
HETATM   68  O15 UNL     1     -34.788  17.032   0.393  1.00  0.00    -0.650 OA
BRANCH  67  69
HETATM   69  O16 UNL     1     -34.417  17.276  -1.827  1.00  0.00    -0.776 OA
HETATM   70  H38 UNL     1     -34.887  16.541  -2.329  1.00  0.00     0.167 HD
ENDBRANCH  67  69
ENDBRANCH  66  67
ENDBRANCH  65  66
ENDBRANCH  14  65
ENDBRANCH   6   7
ENDBRANCH   5   6
ENDBRANCH   2   5
TORSDOF 28
ENDMDL
MODEL 5
REMARK VINA RESULT:      -7.7     18.713     23.752
REMARK  28 active torsions:
REMARK  status: ('A' for Active; 'I' for Inactive)
REMARK    1  A    between atoms: C1_2  and  O2_3 
REMARK    2  A    between atoms: C1_2  and  C2_4 
REMARK    3  A    between atoms: C2_4  and  C3_5 
REMARK    4  A    between atoms: C3_5  and  C4_6 
REMARK    5  A    between atoms: C5_7  and  C6_8 
REMARK    6  A    between atoms: C6_8  and  C7_9 
REMARK    7  A    between atoms: C7_9  and  O4_11 
REMARK    8  A    between atoms: C20_28  and  C21_29 
REMARK    9  A    between atoms: C21_29  and  C22_30 
REMARK   10  A    between atoms: C22_30  and  O6_32 
REMARK   11  A    between atoms: C23_33  and  C24_34 
REMARK   12  A    between atoms: C24_34  and  C25_35 
REMARK   13  A    between atoms: C25_35  and  C26_36 
REMARK   14  A    between atoms: C26_36  and  O8_38 
REMARK   15  A    between atoms: C27_39  and  C28_40 
REMARK   16  A    between atoms: C28_40  and  C29_41 
REMARK   17  A    between atoms: C29_41  and  O10_43 
REMARK   18  A    between atoms: C30_44  and  C31_45 
REMARK   19  A    between atoms: C31_45  and  C32_46 
REMARK   20  A    between atoms: C32_46  and  C33_47 
REMARK   21  A    between atoms: C33_47  and  O12_49 
REMARK   22  A    between atoms: C34_50  and  C35_51 
REMARK   23  A    between atoms: C35_51  and  C36_52 
REMARK   24  A    between atoms: C36_52  and  O14_54 
REMARK   25  A    between atoms: C37_55  and  C38_56 
REMARK   26  A    between atoms: C38_56  and  C39_57 
REMARK   27  A    between atoms: C39_57  and  C40_58 
REMARK   28  A    between atoms: C40_58  and  O16_60 
ROOT
HETATM    1  O1  UNL     1     -41.132 -15.208   1.993  1.00  0.00    -0.650 OA
HETATM    2  C1  UNL     1     -39.956 -15.136   1.616  1.00  0.00     0.139 C 
ENDROOT
BRANCH   2   3
HETATM    3  O2  UNL     1     -39.617 -14.084   0.762  1.00  0.00    -0.776 OA
HETATM    4  H1  UNL     1     -39.569 -14.193  -0.245  1.00  0.00     0.167 HD
ENDBRANCH   2   3
BRANCH   2   5
HETATM    5  C2  UNL     1     -38.916 -16.100   2.028  1.00  0.00     0.115 C 
BRANCH   5   6
HETATM    6  C3  UNL     1     -38.476 -15.962   3.440  1.00  0.00     0.052 C 
BRANCH   6   7
HETATM    7  C4  UNL     1     -37.676 -14.722   3.626  1.00  0.00    -0.020 A 
HETATM    8  C5  UNL     1     -38.025 -13.617   4.290  1.00  0.00    -0.011 A 
HETATM    9  C8  UNL     1     -36.948 -12.659   4.222  1.00  0.00     0.067 A 
HETATM   10  C9  UNL     1     -36.776 -11.346   4.712  1.00  0.00     0.062 C 
HETATM   11  N4  UNL     1     -35.970 -13.216   3.513  1.00  0.00    -0.248 NA
HETATM   12  C10 UNL     1     -35.695 -10.516   4.421  1.00  0.00     0.041 A 
HETATM   13  N1  UNL     1     -34.978 -10.307   3.301  1.00  0.00    -0.355 N 
HETATM   14  C37 UNL     1     -35.155  -9.743   5.475  1.00  0.00    -0.022 A 
HETATM   15  C11 UNL     1     -34.000  -9.435   3.607  1.00  0.00     0.042 A 
HETATM   16  H10 UNL     1     -35.178 -10.750   2.296  1.00  0.00     0.166 HD
HETATM   17  C12 UNL     1     -32.944  -8.889   2.875  1.00  0.00     0.062 C 
HETATM   18  C34 UNL     1     -34.104  -9.073   4.969  1.00  0.00    -0.013 A 
HETATM   19  C13 UNL     1     -32.133  -9.601   1.971  1.00  0.00     0.066 A 
HETATM   20  N2  UNL     1     -32.367 -10.909   1.788  1.00  0.00    -0.248 NA
HETATM   21  C30 UNL     1     -31.031  -9.233   1.118  1.00  0.00    -0.020 A 
HETATM   22  C14 UNL     1     -31.499 -11.399   0.884  1.00  0.00     0.067 A 
HETATM   23  C15 UNL     1     -31.576 -12.755   0.540  1.00  0.00     0.062 C 
HETATM   24  C27 UNL     1     -30.624 -10.320   0.442  1.00  0.00    -0.011 A 
HETATM   25  C16 UNL     1     -32.647 -13.640   0.790  1.00  0.00     0.041 A 
HETATM   26  N3  UNL     1     -33.444 -13.751   1.859  1.00  0.00    -0.355 N 
HETATM   27  C23 UNL     1     -33.032 -14.557  -0.219  1.00  0.00    -0.022 A 
HETATM   28  C17 UNL     1     -34.348 -14.702   1.595  1.00  0.00     0.042 A 
HETATM   29  H13 UNL     1     -33.359 -13.174   2.819  1.00  0.00     0.166 HD
HETATM   30  C18 UNL     1     -35.417 -15.201   2.364  1.00  0.00     0.062 C 
HETATM   31  C20 UNL     1     -34.118 -15.223   0.305  1.00  0.00    -0.013 A 
HETATM   32  C19 UNL     1     -36.334 -14.460   3.120  1.00  0.00     0.066 A 
BRANCH   8  33
HETATM   33  C6  UNL     1     -39.329 -13.440   4.987  1.00  0.00     0.151 C 
BRANCH  33  34
HETATM   34  C7  UNL     1     -39.229 -13.596   6.456  1.00  0.00     0.143 C 
HETATM   35  O3  UNL     1     -38.885 -14.695   6.932  1.00  0.00    -0.650 OA
BRANCH  34  36
HETATM   36  O4  UNL     1     -39.523 -12.510   7.251  1.00  0.00    -0.776 OA
HETATM   37  H8  UNL     1     -39.382 -11.575   6.869  1.00  0.00     0.167 HD
ENDBRANCH  34  36
ENDBRANCH  33  34
ENDBRANCH   8  33
BRANCH  31  38
HETATM   38  C21 UNL     1     -34.916 -16.293  -0.414  1.00  0.00     0.151 C 
BRANCH  38  39
HETATM   39  C22 UNL     1     -34.105 -17.533  -0.379  1.00  0.00     0.143 C 
HETATM   40  O5  UNL     1     -33.956 -18.134   0.707  1.00  0.00    -0.650 OA
BRANCH  39  41
HETATM   41  O6  UNL     1     -33.496 -18.070  -1.503  1.00  0.00    -0.776 OA
HETATM   42  H17 UNL     1     -32.473 -18.143  -1.574  1.00  0.00     0.167 HD
ENDBRANCH  39  41
ENDBRANCH  38  39
ENDBRANCH  31  38
BRANCH  27  43
HETATM   43  C24 UNL     1     -32.447 -14.800  -1.565  1.00  0.00     0.052 C 
BRANCH  43  44
HETATM   44  C25 UNL     1     -33.148 -14.054  -2.620  1.00  0.00     0.115 C 
BRANCH  44  45
HETATM   45  C26 UNL     1     -33.095 -14.535  -3.997  1.00  0.00     0.139 C 
HETATM   46  O7  UNL     1     -33.589 -14.084  -5.025  1.00  0.00    -0.650 OA
BRANCH  45  47
HETATM   47  O8  UNL     1     -32.342 -15.731  -4.170  1.00  0.00    -0.776 OA
HETATM   48  H22 UNL     1     -31.836 -15.933  -4.997  1.00  0.00     0.167 HD
ENDBRANCH  45  47
ENDBRANCH  44  45
ENDBRANCH  43  44
ENDBRANCH  27  43
BRANCH  24  49
HETATM   49  C28 UNL     1     -29.518 -10.419  -0.561  1.00  0.00     0.151 C 
BRANCH  49  50
HETATM   50  C29 UNL     1     -29.962  -9.933  -1.891  1.00  0.00     0.143 C 
HETATM   51  O9  UNL     1     -31.102 -10.255  -2.297  1.00  0.00    -0.650 OA
BRANCH  50  52
HETATM   52  O10 UNL     1     -29.178  -9.138  -2.707  1.00  0.00    -0.776 OA
HETATM   53  H25 UNL     1     -29.517  -8.237  -3.072  1.00  0.00     0.167 HD
ENDBRANCH  50  52
ENDBRANCH  49  50
ENDBRANCH  24  49
BRANCH  21  54
HETATM   54  C31 UNL     1     -30.429  -7.878   0.968  1.00  0.00     0.052 C 
BRANCH  54  55
HETATM   55  C32 UNL     1     -29.110  -7.709   1.632  1.00  0.00     0.115 C 
BRANCH  55  56
HETATM   56  C33 UNL     1     -28.110  -7.467   0.528  1.00  0.00     0.139 C 
HETATM   57  O11 UNL     1     -28.470  -6.986  -0.576  1.00  0.00    -0.650 OA
BRANCH  56  58
HETATM   58  O12 UNL     1     -26.762  -7.762   0.684  1.00  0.00    -0.776 OA
HETATM   59  H30 UNL     1     -26.230  -7.859  -0.185  1.00  0.00     0.167 HD
ENDBRANCH  56  58
ENDBRANCH  55  56
ENDBRANCH  54  55
ENDBRANCH  21  54
BRANCH  18  60
HETATM   60  C35 UNL     1     -33.272  -8.123   5.777  1.00  0.00     0.151 C 
BRANCH  60  61
HETATM   61  C36 UNL     1     -33.852  -6.787   5.624  1.00  0.00     0.143 C 
HETATM   62  O13 UNL     1     -33.412  -5.830   6.321  1.00  0.00    -0.650 OA
BRANCH  61  63
HETATM   63  O14 UNL     1     -34.880  -6.512   4.732  1.00  0.00    -0.776 OA
HETATM   64  H33 UNL     1     -34.938  -7.050   3.884  1.00  0.00     0.167 HD
ENDBRANCH  61  63
ENDBRANCH  60  61
ENDBRANCH  18  60
BRANCH  14  65
HETATM   65  C38 UNL     1     -35.611  -9.613   6.900  1.00  0.00     0.052 C 
BRANCH  65  66
HETATM   66  C39 UNL     1     -36.487  -8.402   7.035  1.00  0.00     0.115 C 
BRANCH  66  67
HETATM   67  C40 UNL     1     -37.908  -8.869   7.248  1.00  0.00     0.139 C 
HETATM   68  O15 UNL     1     -38.874  -8.107   6.983  1.00  0.00    -0.650 OA
BRANCH  67  69
HETATM   69  O16 UNL     1     -38.163 -10.123   7.730  1.00  0.00    -0.776 OA
HETATM   70  H38 UNL     1     -37.447 -10.679   8.165  1.00  0.00     0.167 HD
ENDBRANCH  67  69
ENDBRANCH  66  67
ENDBRANCH  65  66
ENDBRANCH  14  65
ENDBRANCH   6   7
ENDBRANCH   5   6
ENDBRANCH   2   5
TORSDOF 28
ENDMDL
MODEL 6
REMARK VINA RESULT:      -7.6      2.115      8.391
REMARK  28 active torsions:
REMARK  status: ('A' for Active; 'I' for Inactive)
REMARK    1  A    between atoms: C1_2  and  O2_3 
REMARK    2  A    between atoms: C1_2  and  C2_4 
REMARK    3  A    between atoms: C2_4  and  C3_5 
REMARK    4  A    between atoms: C3_5  and  C4_6 
REMARK    5  A    between atoms: C5_7  and  C6_8 
REMARK    6  A    between atoms: C6_8  and  C7_9 
REMARK    7  A    between atoms: C7_9  and  O4_11 
REMARK    8  A    between atoms: C20_28  and  C21_29 
REMARK    9  A    between atoms: C21_29  and  C22_30 
REMARK   10  A    between atoms: C22_30  and  O6_32 
REMARK   11  A    between atoms: C23_33  and  C24_34 
REMARK   12  A    between atoms: C24_34  and  C25_35 
REMARK   13  A    between atoms: C25_35  and  C26_36 
REMARK   14  A    between atoms: C26_36  and  O8_38 
REMARK   15  A    between atoms: C27_39  and  C28_40 
REMARK   16  A    between atoms: C28_40  and  C29_41 
REMARK   17  A    between atoms: C29_41  and  O10_43 
REMARK   18  A    between atoms: C30_44  and  C31_45 
REMARK   19  A    between atoms: C31_45  and  C32_46 
REMARK   20  A    between atoms: C32_46  and  C33_47 
REMARK   21  A    between atoms: C33_47  and  O12_49 
REMARK   22  A    between atoms: C34_50  and  C35_51 
REMARK   23  A    between atoms: C35_51  and  C36_52 
REMARK   24  A    between atoms: C36_52  and  O14_54 
REMARK   25  A    between atoms: C37_55  and  C38_56 
REMARK   26  A    between atoms: C38_56  and  C39_57 
REMARK   27  A    between atoms: C39_57  and  C40_58 
REMARK   28  A    between atoms: C40_58  and  O16_60 
ROOT
HETATM    1  O1  UNL     1     -29.209  17.036  -7.907  1.00  0.00    -0.650 OA
HETATM    2  C1  UNL     1     -28.584  16.814  -6.862  1.00  0.00     0.139 C 
ENDROOT
BRANCH   2   3
HETATM    3  O2  UNL     1     -27.340  17.431  -6.714  1.00  0.00    -0.776 OA
HETATM    4  H1  UNL     1     -26.754  17.674  -7.505  1.00  0.00     0.167 HD
ENDBRANCH   2   3
BRANCH   2   5
HETATM    5  C2  UNL     1     -29.095  15.943  -5.786  1.00  0.00     0.115 C 
BRANCH   5   6
HETATM    6  C3  UNL     1     -28.365  16.065  -4.498  1.00  0.00     0.052 C 
BRANCH   6   7
HETATM    7  C4  UNL     1     -29.213  15.608  -3.364  1.00  0.00    -0.020 A 
HETATM    8  C5  UNL     1     -29.522  16.281  -2.253  1.00  0.00    -0.011 A 
HETATM    9  C8  UNL     1     -30.371  15.463  -1.420  1.00  0.00     0.067 A 
HETATM   10  C9  UNL     1     -30.968  15.649  -0.154  1.00  0.00     0.062 C 
HETATM   11  N4  UNL     1     -30.555  14.311  -2.057  1.00  0.00    -0.248 NA
HETATM   12  C10 UNL     1     -31.659  14.670   0.558  1.00  0.00     0.041 A 
HETATM   13  N1  UNL     1     -31.458  13.349   0.726  1.00  0.00    -0.355 N 
HETATM   14  C37 UNL     1     -32.845  15.054   1.225  1.00  0.00    -0.022 A 
HETATM   15  C11 UNL     1     -32.477  12.881   1.471  1.00  0.00     0.042 A 
HETATM   16  H10 UNL     1     -30.590  12.760   0.347  1.00  0.00     0.166 HD
HETATM   17  C12 UNL     1     -32.821  11.605   1.921  1.00  0.00     0.062 C 
HETATM   18  C34 UNL     1     -33.351  13.943   1.791  1.00  0.00    -0.013 A 
HETATM   19  C13 UNL     1     -32.735  10.427   1.156  1.00  0.00     0.066 A 
HETATM   20  N2  UNL     1     -32.298  10.510  -0.109  1.00  0.00    -0.248 NA
HETATM   21  C30 UNL     1     -33.014   9.038   1.429  1.00  0.00    -0.020 A 
HETATM   22  C14 UNL     1     -32.277   9.283  -0.660  1.00  0.00     0.067 A 
HETATM   23  C15 UNL     1     -31.843   9.144  -1.985  1.00  0.00     0.062 C 
HETATM   24  C27 UNL     1     -32.742   8.317   0.329  1.00  0.00    -0.011 A 
HETATM   25  C16 UNL     1     -31.127  10.088  -2.752  1.00  0.00     0.041 A 
HETATM   26  N3  UNL     1     -31.245  11.420  -2.812  1.00  0.00    -0.355 N 
HETATM   27  C23 UNL     1     -30.069   9.642  -3.581  1.00  0.00    -0.022 A 
HETATM   28  C17 UNL     1     -30.301  11.875  -3.645  1.00  0.00     0.042 A 
HETATM   29  H13 UNL     1     -32.013  12.047  -2.285  1.00  0.00     0.166 HD
HETATM   30  C18 UNL     1     -29.976  13.184  -4.048  1.00  0.00     0.062 C 
HETATM   31  C20 UNL     1     -29.549  10.789  -4.140  1.00  0.00    -0.013 A 
HETATM   32  C19 UNL     1     -29.888  14.322  -3.237  1.00  0.00     0.066 A 
BRANCH   8  33
HETATM   33  C6  UNL     1     -29.049  17.661  -1.956  1.00  0.00     0.151 C 
BRANCH  33  34
HETATM   34  C7  UNL     1     -30.088  18.508  -1.325  1.00  0.00     0.143 C 
HETATM   35  O3  UNL     1     -31.199  18.625  -1.877  1.00  0.00    -0.650 OA
BRANCH  34  36
HETATM   36  O4  UNL     1     -29.784  19.142  -0.140  1.00  0.00    -0.776 OA
HETATM   37  H8  UNL     1     -30.378  18.970   0.671  1.00  0.00     0.167 HD
ENDBRANCH  34  36
ENDBRANCH  33  34
ENDBRANCH   8  33
BRANCH  31  38
HETATM   38  C21 UNL     1     -28.365  10.841  -5.085  1.00  0.00     0.151 C 
BRANCH  38  39
HETATM   39  C22 UNL     1     -27.179  11.200  -4.273  1.00  0.00     0.143 C 
HETATM   40  O5  UNL     1     -26.526  12.225  -4.566  1.00  0.00    -0.650 OA
BRANCH  39  41
HETATM   41  O6  UNL     1     -26.749  10.450  -3.189  1.00  0.00    -0.776 OA
HETATM   42  H17 UNL     1     -26.466  10.897  -2.308  1.00  0.00     0.167 HD
ENDBRANCH  39  41
ENDBRANCH  38  39
ENDBRANCH  31  38
BRANCH  27  43
HETATM   43  C24 UNL     1     -29.571   8.264  -3.839  1.00  0.00     0.052 C 
BRANCH  43  44
HETATM   44  C25 UNL     1     -30.418   7.535  -4.794  1.00  0.00     0.115 C 
BRANCH  44  45
HETATM   45  C26 UNL     1     -30.902   8.218  -5.991  1.00  0.00     0.139 C 
HETATM   46  O7  UNL     1     -31.926   8.863  -6.188  1.00  0.00    -0.650 OA
BRANCH  45  47
HETATM   47  O8  UNL     1     -30.036   8.111  -7.115  1.00  0.00    -0.776 OA
HETATM   48  H22 UNL     1     -29.190   8.620  -7.193  1.00  0.00     0.167 HD
ENDBRANCH  45  47
ENDBRANCH  44  45
ENDBRANCH  43  44
ENDBRANCH  27  43
BRANCH  24  49
HETATM   49  C28 UNL     1     -32.872   6.838   0.142  1.00  0.00     0.151 C 
BRANCH  49  50
HETATM   50  C29 UNL     1     -32.465   6.111   1.370  1.00  0.00     0.143 C 
HETATM   51  O9  UNL     1     -33.215   5.211   1.811  1.00  0.00    -0.650 OA
BRANCH  50  52
HETATM   52  O10 UNL     1     -31.294   6.379   2.056  1.00  0.00    -0.776 OA
HETATM   53  H25 UNL     1     -31.093   7.312   2.440  1.00  0.00     0.167 HD
ENDBRANCH  50  52
ENDBRANCH  49  50
ENDBRANCH  24  49
BRANCH  21  54
HETATM   54  C31 UNL     1     -33.503   8.459   2.712  1.00  0.00     0.052 C 
BRANCH  54  55
HETATM   55  C32 UNL     1     -34.959   8.635   2.956  1.00  0.00     0.115 C 
BRANCH  55  56
HETATM   56  C33 UNL     1     -35.663   7.746   1.960  1.00  0.00     0.139 C 
HETATM   57  O11 UNL     1     -36.126   8.214   0.891  1.00  0.00    -0.650 OA
BRANCH  56  58
HETATM   58  O12 UNL     1     -35.825   6.385   2.183  1.00  0.00    -0.776 OA
HETATM   59  H30 UNL     1     -35.239   5.773   1.609  1.00  0.00     0.167 HD
ENDBRANCH  56  58
ENDBRANCH  55  56
ENDBRANCH  54  55
ENDBRANCH  21  54
BRANCH  18  60
HETATM   60  C35 UNL     1     -34.607  13.941   2.610  1.00  0.00     0.151 C 
BRANCH  60  61
HETATM   61  C36 UNL     1     -34.372  13.088   3.777  1.00  0.00     0.143 C 
HETATM   62  O13 UNL     1     -35.163  12.135   4.026  1.00  0.00    -0.650 OA
BRANCH  61  63
HETATM   63  O14 UNL     1     -33.301  13.274   4.641  1.00  0.00    -0.776 OA
HETATM   64  H33 UNL     1     -32.975  14.212   4.807  1.00  0.00     0.167 HD
ENDBRANCH  61  63
ENDBRANCH  60  61
ENDBRANCH  18  60
BRANCH  14  65
HETATM   65  C38 UNL     1     -33.478  16.409   1.353  1.00  0.00     0.052 C 
BRANCH  65  66
HETATM   66  C39 UNL     1     -34.962  16.286   1.165  1.00  0.00     0.115 C 
BRANCH  66  67
HETATM   67  C40 UNL     1     -35.320  16.893  -0.171  1.00  0.00     0.139 C 
HETATM   68  O15 UNL     1     -34.420  17.176  -1.004  1.00  0.00    -0.650 OA
BRANCH  67  69
HETATM   69  O16 UNL     1     -36.625  17.142  -0.495  1.00  0.00    -0.776 OA
HETATM   70  H38 UNL     1     -36.927  18.045  -0.822  1.00  0.00     0.167 HD
ENDBRANCH  67  69
ENDBRANCH  66  67
ENDBRANCH  65  66
ENDBRANCH  14  65
ENDBRANCH   6   7
ENDBRANCH   5   6
ENDBRANCH   2   5
TORSDOF 28
ENDMDL
MODEL 7
REMARK VINA RESULT:      -7.5     26.841     30.394
REMARK  28 active torsions:
REMARK  status: ('A' for Active; 'I' for Inactive)
REMARK    1  A    between atoms: C1_2  and  O2_3 
REMARK    2  A    between atoms: C1_2  and  C2_4 
REMARK    3  A    between atoms: C2_4  and  C3_5 
REMARK    4  A    between atoms: C3_5  and  C4_6 
REMARK    5  A    between atoms: C5_7  and  C6_8 
REMARK    6  A    between atoms: C6_8  and  C7_9 
REMARK    7  A    between atoms: C7_9  and  O4_11 
REMARK    8  A    between atoms: C20_28  and  C21_29 
REMARK    9  A    between atoms: C21_29  and  C22_30 
REMARK   10  A    between atoms: C22_30  and  O6_32 
REMARK   11  A    between atoms: C23_33  and  C24_34 
REMARK   12  A    between atoms: C24_34  and  C25_35 
REMARK   13  A    between atoms: C25_35  and  C26_36 
REMARK   14  A    between atoms: C26_36  and  O8_38 
REMARK   15  A    between atoms: C27_39  and  C28_40 
REMARK   16  A    between atoms: C28_40  and  C29_41 
REMARK   17  A    between atoms: C29_41  and  O10_43 
REMARK   18  A    between atoms: C30_44  and  C31_45 
REMARK   19  A    between atoms: C31_45  and  C32_46 
REMARK   20  A    between atoms: C32_46  and  C33_47 
REMARK   21  A    between atoms: C33_47  and  O12_49 
REMARK   22  A    between atoms: C34_50  and  C35_51 
REMARK   23  A    between atoms: C35_51  and  C36_52 
REMARK   24  A    between atoms: C36_52  and  O14_54 
REMARK   25  A    between atoms: C37_55  and  C38_56 
REMARK   26  A    between atoms: C38_56  and  C39_57 
REMARK   27  A    between atoms: C39_57  and  C40_58 
REMARK   28  A    between atoms: C40_58  and  O16_60 
ROOT
HETATM    1  O1  UNL     1       0.519   1.715   9.707  1.00  0.00    -0.650 OA
HETATM    2  C1  UNL     1      -0.230   1.773  10.690  1.00  0.00     0.139 C 
ENDROOT
BRANCH   2   3
HETATM    3  O2  UNL     1      -1.117   0.712  10.885  1.00  0.00    -0.776 OA
HETATM    4  H1  UNL     1      -1.674   0.614  11.727  1.00  0.00     0.167 HD
ENDBRANCH   2   3
BRANCH   2   5
HETATM    5  C2  UNL     1      -0.221   2.897  11.646  1.00  0.00     0.115 C 
BRANCH   5   6
HETATM    6  C3  UNL     1      -1.468   3.703  11.657  1.00  0.00     0.052 C 
BRANCH   6   7
HETATM    7  C4  UNL     1      -1.809   4.169  10.286  1.00  0.00    -0.020 A 
HETATM    8  C5  UNL     1      -1.215   5.133   9.579  1.00  0.00    -0.011 A 
HETATM    9  C8  UNL     1      -1.864   5.254   8.296  1.00  0.00     0.067 A 
HETATM   10  C9  UNL     1      -1.676   6.101   7.181  1.00  0.00     0.062 C 
HETATM   11  N4  UNL     1      -2.840   4.352   8.262  1.00  0.00    -0.248 NA
HETATM   12  C10 UNL     1      -2.508   6.155   6.065  1.00  0.00     0.041 A 
HETATM   13  N1  UNL     1      -3.844   6.079   5.917  1.00  0.00    -0.355 N 
HETATM   14  C37 UNL     1      -1.900   6.264   4.794  1.00  0.00    -0.022 A 
HETATM   15  C11 UNL     1      -4.105   6.130   4.598  1.00  0.00     0.042 A 
HETATM   16  H10 UNL     1      -4.598   6.020   6.738  1.00  0.00     0.166 HD
HETATM   17  C12 UNL     1      -5.284   6.051   3.854  1.00  0.00     0.062 C 
HETATM   18  C34 UNL     1      -2.891   6.248   3.885  1.00  0.00    -0.013 A 
HETATM   19  C13 UNL     1      -6.342   5.159   4.109  1.00  0.00     0.066 A 
HETATM   20  N2  UNL     1      -6.231   4.303   5.134  1.00  0.00    -0.248 NA
HETATM   21  C30 UNL     1      -7.626   4.933   3.491  1.00  0.00    -0.020 A 
HETATM   22  C14 UNL     1      -7.344   3.551   5.216  1.00  0.00     0.067 A 
HETATM   23  C15 UNL     1      -7.438   2.590   6.231  1.00  0.00     0.062 C 
HETATM   24  C27 UNL     1      -8.258   3.950   4.153  1.00  0.00    -0.011 A 
HETATM   25  C16 UNL     1      -6.638   2.492   7.391  1.00  0.00     0.041 A 
HETATM   26  N3  UNL     1      -5.327   2.702   7.556  1.00  0.00    -0.355 N 
HETATM   27  C23 UNL     1      -7.253   2.171   8.626  1.00  0.00    -0.022 A 
HETATM   28  C17 UNL     1      -5.049   2.538   8.855  1.00  0.00     0.042 A 
HETATM   29  H13 UNL     1      -4.582   2.943   6.751  1.00  0.00     0.166 HD
HETATM   30  C18 UNL     1      -3.838   2.656   9.564  1.00  0.00     0.062 C 
HETATM   31  C20 UNL     1      -6.231   2.208   9.550  1.00  0.00    -0.013 A 
HETATM   32  C19 UNL     1      -2.870   3.658   9.426  1.00  0.00     0.066 A 
BRANCH   8  33
HETATM   33  C6  UNL     1      -0.059   5.933  10.069  1.00  0.00     0.151 C 
BRANCH  33  34
HETATM   34  C7  UNL     1       1.189   5.677   9.312  1.00  0.00     0.143 C 
HETATM   35  O3  UNL     1       2.103   6.523   9.338  1.00  0.00    -0.650 OA
BRANCH  34  36
HETATM   36  O4  UNL     1       1.292   4.502   8.601  1.00  0.00    -0.776 OA
HETATM   37  H8  UNL     1       1.231   3.619   9.107  1.00  0.00     0.167 HD
ENDBRANCH  34  36
ENDBRANCH  33  34
ENDBRANCH   8  33
BRANCH  31  38
HETATM   38  C21 UNL     1      -6.390   1.964  11.038  1.00  0.00     0.151 C 
BRANCH  38  39
HETATM   39  C22 UNL     1      -6.720   3.269  11.656  1.00  0.00     0.143 C 
HETATM   40  O5  UNL     1      -7.914   3.542  11.903  1.00  0.00    -0.650 OA
BRANCH  39  41
HETATM   41  O6  UNL     1      -5.761   4.216  11.983  1.00  0.00    -0.776 OA
HETATM   42  H17 UNL     1      -4.781   3.951  12.146  1.00  0.00     0.167 HD
ENDBRANCH  39  41
ENDBRANCH  38  39
ENDBRANCH  31  38
BRANCH  27  43
HETATM   43  C24 UNL     1      -8.674   1.856   8.934  1.00  0.00     0.052 C 
BRANCH  43  44
HETATM   44  C25 UNL     1      -9.609   2.684   8.159  1.00  0.00     0.115 C 
BRANCH  44  45
HETATM   45  C26 UNL     1     -10.895   2.127   7.752  1.00  0.00     0.139 C 
HETATM   46  O7  UNL     1     -12.019   2.276   8.219  1.00  0.00    -0.650 OA
BRANCH  45  47
HETATM   47  O8  UNL     1     -10.827   1.263   6.623  1.00  0.00    -0.776 OA
HETATM   48  H22 UNL     1     -11.572   1.160   5.979  1.00  0.00     0.167 HD
ENDBRANCH  45  47
ENDBRANCH  44  45
ENDBRANCH  43  44
ENDBRANCH  27  43
BRANCH  24  49
HETATM   49  C28 UNL     1      -9.615   3.380   3.878  1.00  0.00     0.151 C 
BRANCH  49  50
HETATM   50  C29 UNL     1      -9.508   2.029   3.274  1.00  0.00     0.143 C 
HETATM   51  O9  UNL     1      -9.256   1.937   2.051  1.00  0.00    -0.650 OA
BRANCH  50  52
HETATM   52  O10 UNL     1      -9.674   0.861   3.996  1.00  0.00    -0.776 OA
HETATM   53  H25 UNL     1      -8.871   0.301   4.312  1.00  0.00     0.167 HD
ENDBRANCH  50  52
ENDBRANCH  49  50
ENDBRANCH  24  49
BRANCH  21  54
HETATM   54  C31 UNL     1      -8.199   5.663   2.325  1.00  0.00     0.052 C 
BRANCH  54  55
HETATM   55  C32 UNL     1      -7.916   5.041   1.005  1.00  0.00     0.115 C 
BRANCH  55  56
HETATM   56  C33 UNL     1      -6.607   5.627   0.535  1.00  0.00     0.139 C 
HETATM   57  O11 UNL     1      -6.440   6.870   0.473  1.00  0.00    -0.650 OA
BRANCH  56  58
HETATM   58  O12 UNL     1      -5.540   4.822   0.156  1.00  0.00    -0.776 OA
HETATM   59  H30 UNL     1      -5.095   4.296   0.913  1.00  0.00     0.167 HD
ENDBRANCH  56  58
ENDBRANCH  55  56
ENDBRANCH  54  55
ENDBRANCH  21  54
BRANCH  18  60
HETATM   60  C35 UNL     1      -2.651   6.363   2.408  1.00  0.00     0.151 C 
BRANCH  60  61
HETATM   61  C36 UNL     1      -2.235   5.045   1.924  1.00  0.00     0.143 C 
HETATM   62  O13 UNL     1      -3.069   4.096   1.898  1.00  0.00    -0.650 OA
BRANCH  61  63
HETATM   63  O14 UNL     1      -0.946   4.778   1.482  1.00  0.00    -0.776 OA
HETATM   64  H33 UNL     1      -0.713   4.991   0.527  1.00  0.00     0.167 HD
ENDBRANCH  61  63
ENDBRANCH  60  61
ENDBRANCH  18  60
BRANCH  14  65
HETATM   65  C38 UNL     1      -0.449   6.400   4.433  1.00  0.00     0.052 C 
BRANCH  65  66
HETATM   66  C39 UNL     1      -0.062   7.850   4.457  1.00  0.00     0.115 C 
BRANCH  66  67
HETATM   67  C40 UNL     1       0.586   8.188   3.135  1.00  0.00     0.139 C 
HETATM   68  O15 UNL     1       0.737   7.301   2.255  1.00  0.00    -0.650 OA
BRANCH  67  69
HETATM   69  O16 UNL     1       1.018   9.459   2.877  1.00  0.00    -0.776 OA
HETATM   70  H38 UNL     1       1.833   9.638   2.315  1.00  0.00     0.167 HD
ENDBRANCH  67  69
ENDBRANCH  66  67
ENDBRANCH  65  66
ENDBRANCH  14  65
ENDBRANCH   6   7
ENDBRANCH   5   6
ENDBRANCH   2   5
TORSDOF 28
ENDMDL
MODEL 8
REMARK VINA RESULT:      -7.3      1.734      8.167
REMARK  28 active torsions:
REMARK  status: ('A' for Active; 'I' for Inactive)
REMARK    1  A    between atoms: C1_2  and  O2_3 
REMARK    2  A    between atoms: C1_2  and  C2_4 
REMARK    3  A    between atoms: C2_4  and  C3_5 
REMARK    4  A    between atoms: C3_5  and  C4_6 
REMARK    5  A    between atoms: C5_7  and  C6_8 
REMARK    6  A    between atoms: C6_8  and  C7_9 
REMARK    7  A    between atoms: C7_9  and  O4_11 
REMARK    8  A    between atoms: C20_28  and  C21_29 
REMARK    9  A    between atoms: C21_29  and  C22_30 
REMARK   10  A    between atoms: C22_30  and  O6_32 
REMARK   11  A    between atoms: C23_33  and  C24_34 
REMARK   12  A    between atoms: C24_34  and  C25_35 
REMARK   13  A    between atoms: C25_35  and  C26_36 
REMARK   14  A    between atoms: C26_36  and  O8_38 
REMARK   15  A    between atoms: C27_39  and  C28_40 
REMARK   16  A    between atoms: C28_40  and  C29_41 
REMARK   17  A    between atoms: C29_41  and  O10_43 
REMARK   18  A    between atoms: C30_44  and  C31_45 
REMARK   19  A    between atoms: C31_45  and  C32_46 
REMARK   20  A    between atoms: C32_46  and  C33_47 
REMARK   21  A    between atoms: C33_47  and  O12_49 
REMARK   22  A    between atoms: C34_50  and  C35_51 
REMARK   23  A    between atoms: C35_51  and  C36_52 
REMARK   24  A    between atoms: C36_52  and  O14_54 
REMARK   25  A    between atoms: C37_55  and  C38_56 
REMARK   26  A    between atoms: C38_56  and  C39_57 
REMARK   27  A    between atoms: C39_57  and  C40_58 
REMARK   28  A    between atoms: C40_58  and  O16_60 
ROOT
HETATM    1  O1  UNL     1     -27.280  16.353  -5.734  1.00  0.00    -0.650 OA
HETATM    2  C1  UNL     1     -27.069  15.137  -5.807  1.00  0.00     0.139 C 
ENDROOT
BRANCH   2   3
HETATM    3  O2  UNL     1     -25.964  14.719  -6.553  1.00  0.00    -0.776 OA
HETATM    4  H1  UNL     1     -25.523  15.308  -7.250  1.00  0.00     0.167 HD
ENDBRANCH   2   3
BRANCH   2   5
HETATM    5  C2  UNL     1     -27.922  14.129  -5.147  1.00  0.00     0.115 C 
BRANCH   5   6
HETATM    6  C3  UNL     1     -29.319  14.570  -4.906  1.00  0.00     0.052 C 
BRANCH   6   7
HETATM    7  C4  UNL     1     -29.887  13.897  -3.707  1.00  0.00    -0.020 A 
HETATM    8  C5  UNL     1     -29.902  14.345  -2.449  1.00  0.00    -0.011 A 
HETATM    9  C8  UNL     1     -30.555  13.374  -1.604  1.00  0.00     0.067 A 
HETATM   10  C9  UNL     1     -30.829  13.311  -0.220  1.00  0.00     0.062 C 
HETATM   11  N4  UNL     1     -30.921  12.359  -2.380  1.00  0.00    -0.248 NA
HETATM   12  C10 UNL     1     -31.361  12.206   0.443  1.00  0.00     0.041 A 
HETATM   13  N1  UNL     1     -31.167  10.880   0.310  1.00  0.00    -0.355 N 
HETATM   14  C37 UNL     1     -32.342  12.441   1.433  1.00  0.00    -0.022 A 
HETATM   15  C11 UNL     1     -31.994  10.266   1.177  1.00  0.00     0.042 A 
HETATM   16  H10 UNL     1     -30.432  10.384  -0.367  1.00  0.00     0.166 HD
HETATM   17  C12 UNL     1     -32.262   8.923   1.452  1.00  0.00     0.062 C 
HETATM   18  C34 UNL     1     -32.734  11.237   1.887  1.00  0.00    -0.013 A 
HETATM   19  C13 UNL     1     -32.396   7.911   0.483  1.00  0.00     0.066 A 
HETATM   20  N2  UNL     1     -32.270   8.236  -0.811  1.00  0.00    -0.248 NA
HETATM   21  C30 UNL     1     -32.645   6.492   0.553  1.00  0.00    -0.020 A 
HETATM   22  C14 UNL     1     -32.418   7.134  -1.568  1.00  0.00     0.067 A 
HETATM   23  C15 UNL     1     -32.315   7.251  -2.961  1.00  0.00     0.062 C 
HETATM   24  C27 UNL     1     -32.665   5.994  -0.694  1.00  0.00    -0.011 A 
HETATM   25  C16 UNL     1     -31.773   8.333  -3.689  1.00  0.00     0.041 A 
HETATM   26  N3  UNL     1     -31.860   9.651  -3.471  1.00  0.00    -0.355 N 
HETATM   27  C23 UNL     1     -30.956   8.065  -4.814  1.00  0.00    -0.022 A 
HETATM   28  C17 UNL     1     -31.127  10.267  -4.406  1.00  0.00     0.042 A 
HETATM   29  H13 UNL     1     -32.461  10.157  -2.669  1.00  0.00     0.166 HD
HETATM   30  C18 UNL     1     -30.866  11.633  -4.625  1.00  0.00     0.062 C 
HETATM   31  C20 UNL     1     -30.548   9.304  -5.258  1.00  0.00    -0.013 A 
HETATM   32  C19 UNL     1     -30.553  12.600  -3.662  1.00  0.00     0.066 A 
BRANCH   8  33
HETATM   33  C6  UNL     1     -29.330  15.652  -2.023  1.00  0.00     0.151 C 
BRANCH  33  34
HETATM   34  C7  UNL     1     -30.350  16.718  -1.891  1.00  0.00     0.143 C 
HETATM   35  O3  UNL     1     -29.987  17.910  -1.856  1.00  0.00    -0.650 OA
BRANCH  34  36
HETATM   36  O4  UNL     1     -31.675  16.349  -1.811  1.00  0.00    -0.776 OA
HETATM   37  H8  UNL     1     -32.372  16.934  -2.270  1.00  0.00     0.167 HD
ENDBRANCH  34  36
ENDBRANCH  33  34
ENDBRANCH   8  33
BRANCH  31  38
HETATM   38  C21 UNL     1     -29.621   9.549  -6.433  1.00  0.00     0.151 C 
BRANCH  38  39
HETATM   39  C22 UNL     1     -30.175   8.799  -7.584  1.00  0.00     0.143 C 
HETATM   40  O5  UNL     1     -29.429   8.028  -8.226  1.00  0.00    -0.650 OA
BRANCH  39  41
HETATM   41  O6  UNL     1     -31.496   8.907  -7.993  1.00  0.00    -0.776 OA
HETATM   42  H17 UNL     1     -32.269   8.879  -7.316  1.00  0.00     0.167 HD
ENDBRANCH  39  41
ENDBRANCH  38  39
ENDBRANCH  31  38
BRANCH  27  43
HETATM   43  C24 UNL     1     -30.577   6.767  -5.434  1.00  0.00     0.052 C 
BRANCH  43  44
HETATM   44  C25 UNL     1     -29.734   5.952  -4.547  1.00  0.00     0.115 C 
BRANCH  44  45
HETATM   45  C26 UNL     1     -29.196   4.684  -5.032  1.00  0.00     0.139 C 
HETATM   46  O7  UNL     1     -29.507   3.527  -4.769  1.00  0.00    -0.650 OA
BRANCH  45  47
HETATM   47  O8  UNL     1     -28.130   4.820  -5.965  1.00  0.00    -0.776 OA
HETATM   48  H22 UNL     1     -27.745   5.696  -6.217  1.00  0.00     0.167 HD
ENDBRANCH  45  47
ENDBRANCH  44  45
ENDBRANCH  43  44
ENDBRANCH  27  43
BRANCH  24  49
HETATM   49  C28 UNL     1     -32.881   4.574  -1.114  1.00  0.00     0.151 C 
BRANCH  49  50
HETATM   50  C29 UNL     1     -31.855   4.150  -2.099  1.00  0.00     0.143 C 
HETATM   51  O9  UNL     1     -30.689   3.939  -1.696  1.00  0.00    -0.650 OA
BRANCH  50  52
HETATM   52  O10 UNL     1     -32.123   3.977  -3.445  1.00  0.00    -0.776 OA
HETATM   53  H25 UNL     1     -32.860   4.511  -3.923  1.00  0.00     0.167 HD
ENDBRANCH  50  52
ENDBRANCH  49  50
ENDBRANCH  24  49
BRANCH  21  54
HETATM   54  C31 UNL     1     -32.834   5.676   1.786  1.00  0.00     0.052 C 
BRANCH  54  55
HETATM   55  C32 UNL     1     -32.011   6.108   2.947  1.00  0.00     0.115 C 
BRANCH  55  56
HETATM   56  C33 UNL     1     -32.787   5.719   4.181  1.00  0.00     0.139 C 
HETATM   57  O11 UNL     1     -32.597   6.305   5.275  1.00  0.00    -0.650 OA
BRANCH  56  58
HETATM   58  O12 UNL     1     -33.737   4.706   4.158  1.00  0.00    -0.776 OA
HETATM   59  H30 UNL     1     -33.422   3.800   4.518  1.00  0.00     0.167 HD
ENDBRANCH  56  58
ENDBRANCH  55  56
ENDBRANCH  54  55
ENDBRANCH  21  54
BRANCH  18  60
HETATM   60  C35 UNL     1     -33.759  11.063   2.968  1.00  0.00     0.151 C 
BRANCH  60  61
HETATM   61  C36 UNL     1     -34.943  10.452   2.360  1.00  0.00     0.143 C 
HETATM   62  O13 UNL     1     -35.314  10.817   1.209  1.00  0.00    -0.650 OA
BRANCH  61  63
HETATM   63  O14 UNL     1     -35.693   9.471   2.995  1.00  0.00    -0.776 OA
HETATM   64  H33 UNL     1     -35.385   8.515   2.932  1.00  0.00     0.167 HD
ENDBRANCH  61  63
ENDBRANCH  60  61
ENDBRANCH  18  60
BRANCH  14  65
HETATM   65  C38 UNL     1     -32.884  13.739   1.957  1.00  0.00     0.052 C 
BRANCH  65  66
HETATM   66  C39 UNL     1     -32.416  13.942   3.368  1.00  0.00     0.115 C 
BRANCH  66  67
HETATM   67  C40 UNL     1     -31.261  14.916   3.347  1.00  0.00     0.139 C 
HETATM   68  O15 UNL     1     -31.017  15.591   2.313  1.00  0.00    -0.650 OA
BRANCH  67  69
HETATM   69  O16 UNL     1     -30.466  15.076   4.448  1.00  0.00    -0.776 OA
HETATM   70  H38 UNL     1     -30.279  14.317   5.081  1.00  0.00     0.167 HD
ENDBRANCH  67  69
ENDBRANCH  66  67
ENDBRANCH  65  66
ENDBRANCH  14  65
ENDBRANCH   6   7
ENDBRANCH   5   6
ENDBRANCH   2   5
TORSDOF 28
ENDMDL
MODEL 9
REMARK VINA RESULT:      -7.3     17.254     21.436
REMARK  28 active torsions:
REMARK  status: ('A' for Active; 'I' for Inactive)
REMARK    1  A    between atoms: C1_2  and  O2_3 
REMARK    2  A    between atoms: C1_2  and  C2_4 
REMARK    3  A    between atoms: C2_4  and  C3_5 
REMARK    4  A    between atoms: C3_5  and  C4_6 
REMARK    5  A    between atoms: C5_7  and  C6_8 
REMARK    6  A    between atoms: C6_8  and  C7_9 
REMARK    7  A    between atoms: C7_9  and  O4_11 
REMARK    8  A    between atoms: C20_28  and  C21_29 
REMARK    9  A    between atoms: C21_29  and  C22_30 
REMARK   10  A    between atoms: C22_30  and  O6_32 
REMARK   11  A    between atoms: C23_33  and  C24_34 
REMARK   12  A    between atoms: C24_34  and  C25_35 
REMARK   13  A    between atoms: C25_35  and  C26_36 
REMARK   14  A    between atoms: C26_36  and  O8_38 
REMARK   15  A    between atoms: C27_39  and  C28_40 
REMARK   16  A    between atoms: C28_40  and  C29_41 
REMARK   17  A    between atoms: C29_41  and  O10_43 
REMARK   18  A    between atoms: C30_44  and  C31_45 
REMARK   19  A    between atoms: C31_45  and  C32_46 
REMARK   20  A    between atoms: C32_46  and  C33_47 
REMARK   21  A    between atoms: C33_47  and  O12_49 
REMARK   22  A    between atoms: C34_50  and  C35_51 
REMARK   23  A    between atoms: C35_51  and  C36_52 
REMARK   24  A    between atoms: C36_52  and  O14_54 
REMARK   25  A    between atoms: C37_55  and  C38_56 
REMARK   26  A    between atoms: C38_56  and  C39_57 
REMARK   27  A    between atoms: C39_57  and  C40_58 
REMARK   28  A    between atoms: C40_58  and  O16_60 
ROOT
HETATM    1  O1  UNL     1     -19.714  11.974   1.041  1.00  0.00    -0.650 OA
HETATM    2  C1  UNL     1     -19.772  10.747   0.895  1.00  0.00     0.139 C 
ENDROOT
BRANCH   2   3
HETATM    3  O2  UNL     1     -20.487  10.263  -0.203  1.00  0.00    -0.776 OA
HETATM    4  H1  UNL     1     -20.845   9.316  -0.246  1.00  0.00     0.167 HD
ENDBRANCH   2   3
BRANCH   2   5
HETATM    5  C2  UNL     1     -19.126   9.793   1.818  1.00  0.00     0.115 C 
BRANCH   5   6
HETATM    6  C3  UNL     1     -18.754   8.496   1.199  1.00  0.00     0.052 C 
BRANCH   6   7
HETATM    7  C4  UNL     1     -17.286   8.270   1.286  1.00  0.00    -0.020 A 
HETATM    8  C5  UNL     1     -16.391   8.325   0.297  1.00  0.00    -0.011 A 
HETATM    9  C8  UNL     1     -15.077   8.043   0.825  1.00  0.00     0.067 A 
HETATM   10  C9  UNL     1     -13.793   7.946   0.247  1.00  0.00     0.062 C 
HETATM   11  N4  UNL     1     -15.216   7.824   2.129  1.00  0.00    -0.248 NA
HETATM   12  C10 UNL     1     -12.644   7.522   0.912  1.00  0.00     0.041 A 
HETATM   13  N1  UNL     1     -12.421   6.565   1.832  1.00  0.00    -0.355 N 
HETATM   14  C37 UNL     1     -11.441   8.220   0.659  1.00  0.00    -0.022 A 
HETATM   15  C11 UNL     1     -11.121   6.634   2.176  1.00  0.00     0.042 A 
HETATM   16  H10 UNL     1     -13.167   5.828   2.213  1.00  0.00     0.166 HD
HETATM   17  C12 UNL     1     -10.340   5.936   3.098  1.00  0.00     0.062 C 
HETATM   18  C34 UNL     1     -10.498   7.668   1.443  1.00  0.00    -0.013 A 
HETATM   19  C13 UNL     1     -10.746   5.581   4.398  1.00  0.00     0.066 A 
HETATM   20  N2  UNL     1     -11.971   5.938   4.810  1.00  0.00    -0.248 NA
HETATM   21  C30 UNL     1     -10.117   4.860   5.477  1.00  0.00    -0.020 A 
HETATM   22  C14 UNL     1     -12.169   5.498   6.066  1.00  0.00     0.067 A 
HETATM   23  C15 UNL     1     -13.397   5.759   6.689  1.00  0.00     0.062 C 
HETATM   24  C27 UNL     1     -10.970   4.797   6.512  1.00  0.00    -0.011 A 
HETATM   25  C16 UNL     1     -14.597   6.173   6.070  1.00  0.00     0.041 A 
HETATM   26  N3  UNL     1     -14.798   7.028   5.060  1.00  0.00    -0.355 N 
HETATM   27  C23 UNL     1     -15.822   5.603   6.494  1.00  0.00    -0.022 A 
HETATM   28  C17 UNL     1     -16.110   7.044   4.795  1.00  0.00     0.042 A 
HETATM   29  H13 UNL     1     -14.016   7.647   4.544  1.00  0.00     0.166 HD
HETATM   30  C18 UNL     1     -16.850   7.752   3.830  1.00  0.00     0.062 C 
HETATM   31  C20 UNL     1     -16.776   6.163   5.673  1.00  0.00    -0.013 A 
HETATM   32  C19 UNL     1     -16.519   7.944   2.483  1.00  0.00     0.066 A 
BRANCH   8  33
HETATM   33  C6  UNL     1     -16.731   8.639  -1.118  1.00  0.00     0.151 C 
BRANCH  33  34
HETATM   34  C7  UNL     1     -17.168  10.041  -1.314  1.00  0.00     0.143 C 
HETATM   35  O3  UNL     1     -18.093  10.286  -2.112  1.00  0.00    -0.650 OA
BRANCH  34  36
HETATM   36  O4  UNL     1     -16.529  11.031  -0.600  1.00  0.00    -0.776 OA
HETATM   37  H8  UNL     1     -15.935  11.689  -1.104  1.00  0.00     0.167 HD
ENDBRANCH  34  36
ENDBRANCH  33  34
ENDBRANCH   8  33
BRANCH  31  38
HETATM   38  C21 UNL     1     -18.258   5.844   5.711  1.00  0.00     0.151 C 
BRANCH  38  39
HETATM   39  C22 UNL     1     -18.474   4.690   4.808  1.00  0.00     0.143 C 
HETATM   40  O5  UNL     1     -19.424   3.908   5.034  1.00  0.00    -0.650 OA
BRANCH  39  41
HETATM   41  O6  UNL     1     -17.670   4.426   3.710  1.00  0.00    -0.776 OA
HETATM   42  H17 UNL     1     -17.222   3.510   3.582  1.00  0.00     0.167 HD
ENDBRANCH  39  41
ENDBRANCH  38  39
ENDBRANCH  31  38
BRANCH  27  43
HETATM   43  C24 UNL     1     -16.095   4.616   7.573  1.00  0.00     0.052 C 
BRANCH  43  44
HETATM   44  C25 UNL     1     -16.010   3.229   7.094  1.00  0.00     0.115 C 
BRANCH  44  45
HETATM   45  C26 UNL     1     -17.196   2.378   7.142  1.00  0.00     0.139 C 
HETATM   46  O7  UNL     1     -18.250   2.505   7.755  1.00  0.00    -0.650 OA
BRANCH  45  47
HETATM   47  O8  UNL     1     -17.107   1.205   6.341  1.00  0.00    -0.776 OA
HETATM   48  H22 UNL     1     -17.831   0.532   6.290  1.00  0.00     0.167 HD
ENDBRANCH  45  47
ENDBRANCH  44  45
ENDBRANCH  43  44
ENDBRANCH  27  43
BRANCH  24  49
HETATM   49  C28 UNL     1     -10.759   4.144   7.842  1.00  0.00     0.151 C 
BRANCH  49  50
HETATM   50  C29 UNL     1     -11.558   2.899   7.954  1.00  0.00     0.143 C 
HETATM   51  O9  UNL     1     -11.110   1.850   7.438  1.00  0.00    -0.650 OA
BRANCH  50  52
HETATM   52  O10 UNL     1     -12.778   2.838   8.602  1.00  0.00    -0.776 OA
HETATM   53  H25 UNL     1     -13.048   3.530   9.314  1.00  0.00     0.167 HD
ENDBRANCH  50  52
ENDBRANCH  49  50
ENDBRANCH  24  49
BRANCH  21  54
HETATM   54  C31 UNL     1      -8.756   4.252   5.474  1.00  0.00     0.052 C 
BRANCH  54  55
HETATM   55  C32 UNL     1      -8.705   2.850   4.983  1.00  0.00     0.115 C 
BRANCH  55  56
HETATM   56  C33 UNL     1      -7.940   2.068   6.022  1.00  0.00     0.139 C 
HETATM   57  O11 UNL     1      -6.755   2.366   6.313  1.00  0.00    -0.650 OA
BRANCH  56  58
HETATM   58  O12 UNL     1      -8.510   0.995   6.695  1.00  0.00    -0.776 OA
HETATM   59  H30 UNL     1      -8.752   0.189   6.112  1.00  0.00     0.167 HD
ENDBRANCH  56  58
ENDBRANCH  55  56
ENDBRANCH  54  55
ENDBRANCH  21  54
BRANCH  18  60
HETATM   60  C35 UNL     1      -9.068   8.124   1.450  1.00  0.00     0.151 C 
BRANCH  60  61
HETATM   61  C36 UNL     1      -8.261   7.057   0.855  1.00  0.00     0.143 C 
HETATM   62  O13 UNL     1      -8.576   6.590  -0.275  1.00  0.00    -0.650 OA
BRANCH  61  63
HETATM   63  O14 UNL     1      -7.143   6.522   1.481  1.00  0.00    -0.776 OA
HETATM   64  H33 UNL     1      -6.835   6.933   2.347  1.00  0.00     0.167 HD
ENDBRANCH  61  63
ENDBRANCH  60  61
ENDBRANCH  18  60
BRANCH  14  65
HETATM   65  C38 UNL     1     -11.168   9.348  -0.294  1.00  0.00     0.052 C 
BRANCH  65  66
HETATM   66  C39 UNL     1     -10.909   8.792  -1.664  1.00  0.00     0.115 C 
BRANCH  66  67
HETATM   67  C40 UNL     1      -9.566   9.302  -2.134  1.00  0.00     0.139 C 
HETATM   68  O15 UNL     1      -9.297  10.531  -2.075  1.00  0.00    -0.650 OA
BRANCH  67  69
HETATM   69  O16 UNL     1      -8.629   8.439  -2.629  1.00  0.00    -0.776 OA
HETATM   70  H38 UNL     1      -8.827   7.830  -3.405  1.00  0.00     0.167 HD
ENDBRANCH  67  69
ENDBRANCH  66  67
ENDBRANCH  65  66
ENDBRANCH  14  65
ENDBRANCH   6   7
ENDBRANCH   5   6
ENDBRANCH   2   5
TORSDOF 28
ENDMDL
MODEL 10
REMARK VINA RESULT:      -7.2     17.779     20.742
REMARK  28 active torsions:
REMARK  status: ('A' for Active; 'I' for Inactive)
REMARK    1  A    between atoms: C1_2  and  O2_3 
REMARK    2  A    between atoms: C1_2  and  C2_4 
REMARK    3  A    between atoms: C2_4  and  C3_5 
REMARK    4  A    between atoms: C3_5  and  C4_6 
REMARK    5  A    between atoms: C5_7  and  C6_8 
REMARK    6  A    between atoms: C6_8  and  C7_9 
REMARK    7  A    between atoms: C7_9  and  O4_11 
REMARK    8  A    between atoms: C20_28  and  C21_29 
REMARK    9  A    between atoms: C21_29  and  C22_30 
REMARK   10  A    between atoms: C22_30  and  O6_32 
REMARK   11  A    between atoms: C23_33  and  C24_34 
REMARK   12  A    between atoms: C24_34  and  C25_35 
REMARK   13  A    between atoms: C25_35  and  C26_36 
REMARK   14  A    between atoms: C26_36  and  O8_38 
REMARK   15  A    between atoms: C27_39  and  C28_40 
REMARK   16  A    between atoms: C28_40  and  C29_41 
REMARK   17  A    between atoms: C29_41  and  O10_43 
REMARK   18  A    between atoms: C30_44  and  C31_45 
REMARK   19  A    between atoms: C31_45  and  C32_46 
REMARK   20  A    between atoms: C32_46  and  C33_47 
REMARK   21  A    between atoms: C33_47  and  O12_49 
REMARK   22  A    between atoms: C34_50  and  C35_51 
REMARK   23  A    between atoms: C35_51  and  C36_52 
REMARK   24  A    between atoms: C36_52  and  O14_54 
REMARK   25  A    between atoms: C37_55  and  C38_56 
REMARK   26  A    between atoms: C38_56  and  C39_57 
REMARK   27  A    between atoms: C39_57  and  C40_58 
REMARK   28  A    between atoms: C40_58  and  O16_60 
ROOT
HETATM    1  O1  UNL     1     -19.419   9.965  -0.771  1.00  0.00    -0.650 OA
HETATM    2  C1  UNL     1     -18.368   9.945  -1.424  1.00  0.00     0.139 C 
ENDROOT
BRANCH   2   3
HETATM    3  O2  UNL     1     -18.283  10.793  -2.530  1.00  0.00    -0.776 OA
HETATM    4  H1  UNL     1     -18.125  11.791  -2.442  1.00  0.00     0.167 HD
ENDBRANCH   2   3
BRANCH   2   5
HETATM    5  C2  UNL     1     -17.223   9.077  -1.084  1.00  0.00     0.115 C 
BRANCH   5   6
HETATM    6  C3  UNL     1     -16.135   9.761  -0.340  1.00  0.00     0.052 C 
BRANCH   6   7
HETATM    7  C4  UNL     1     -15.843   9.056   0.937  1.00  0.00    -0.020 A 
HETATM    8  C5  UNL     1     -16.514   9.138   2.088  1.00  0.00    -0.011 A 
HETATM    9  C8  UNL     1     -15.888   8.284   3.069  1.00  0.00     0.067 A 
HETATM   10  C9  UNL     1     -16.150   8.001   4.427  1.00  0.00     0.062 C 
HETATM   11  N4  UNL     1     -14.848   7.704   2.478  1.00  0.00    -0.248 NA
HETATM   12  C10 UNL     1     -15.335   7.236   5.259  1.00  0.00     0.041 A 
HETATM   13  N1  UNL     1     -13.998   7.130   5.383  1.00  0.00    -0.355 N 
HETATM   14  C37 UNL     1     -15.962   6.330   6.145  1.00  0.00    -0.022 A 
HETATM   15  C11 UNL     1     -13.755   6.186   6.311  1.00  0.00     0.042 A 
HETATM   16  H10 UNL     1     -13.234   7.738   4.842  1.00  0.00     0.166 HD
HETATM   17  C12 UNL     1     -12.581   5.626   6.818  1.00  0.00     0.062 C 
HETATM   18  C34 UNL     1     -14.981   5.680   6.796  1.00  0.00    -0.013 A 
HETATM   19  C13 UNL     1     -11.457   5.272   6.049  1.00  0.00     0.066 A 
HETATM   20  N2  UNL     1     -11.494   5.470   4.723  1.00  0.00    -0.248 NA
HETATM   21  C30 UNL     1     -10.166   4.714   6.369  1.00  0.00    -0.020 A 
HETATM   22  C14 UNL     1     -10.327   5.082   4.177  1.00  0.00     0.067 A 
HETATM   23  C15 UNL     1     -10.152   5.210   2.793  1.00  0.00     0.062 C 
HETATM   24  C27 UNL     1      -9.456   4.587   5.237  1.00  0.00    -0.011 A 
HETATM   25  C16 UNL     1     -10.931   5.981   1.902  1.00  0.00     0.041 A 
HETATM   26  N3  UNL     1     -12.253   6.189   1.868  1.00  0.00    -0.355 N 
HETATM   27  C23 UNL     1     -10.282   6.720   0.883  1.00  0.00    -0.022 A 
HETATM   28  C17 UNL     1     -12.505   7.042   0.869  1.00  0.00     0.042 A 
HETATM   29  H13 UNL     1     -13.021   5.713   2.536  1.00  0.00     0.166 HD
HETATM   30  C18 UNL     1     -13.714   7.600   0.411  1.00  0.00     0.062 C 
HETATM   31  C20 UNL     1     -11.294   7.393   0.235  1.00  0.00    -0.013 A 
HETATM   32  C19 UNL     1     -14.755   8.118   1.191  1.00  0.00     0.066 A 
BRANCH   8  33
HETATM   33  C6  UNL     1     -17.722   9.986   2.289  1.00  0.00     0.151 C 
BRANCH  33  34
HETATM   34  C7  UNL     1     -18.924   9.206   2.665  1.00  0.00     0.143 C 
HETATM   35  O3  UNL     1     -19.515   9.471   3.729  1.00  0.00    -0.650 OA
BRANCH  34  36
HETATM   36  O4  UNL     1     -19.346   8.206   1.817  1.00  0.00    -0.776 OA
HETATM   37  H8  UNL     1     -20.318   8.209   1.506  1.00  0.00     0.167 HD
ENDBRANCH  34  36
ENDBRANCH  33  34
ENDBRANCH   8  33
BRANCH  31  38
HETATM   38  C21 UNL     1     -11.104   8.354  -0.922  1.00  0.00     0.151 C 
BRANCH  38  39
HETATM   39  C22 UNL     1     -10.872   9.695  -0.338  1.00  0.00     0.143 C 
HETATM   40  O5  UNL     1      -9.778  10.266  -0.535  1.00  0.00    -0.650 OA
BRANCH  39  41
HETATM   41  O6  UNL     1     -11.818  10.361   0.427  1.00  0.00    -0.776 OA
HETATM   42  H17 UNL     1     -12.799  10.055   0.449  1.00  0.00     0.167 HD
ENDBRANCH  39  41
ENDBRANCH  38  39
ENDBRANCH  31  38
BRANCH  27  43
HETATM   43  C24 UNL     1      -8.839   6.802   0.532  1.00  0.00     0.052 C 
BRANCH  43  44
HETATM   44  C25 UNL     1      -8.133   7.828   1.313  1.00  0.00     0.115 C 
BRANCH  44  45
HETATM   45  C26 UNL     1      -6.873   7.493   1.969  1.00  0.00     0.139 C 
HETATM   46  O7  UNL     1      -5.713   7.719   1.642  1.00  0.00    -0.650 OA
BRANCH  45  47
HETATM   47  O8  UNL     1      -7.022   6.781   3.193  1.00  0.00    -0.776 OA
HETATM   48  H22 UNL     1      -6.801   7.175   4.074  1.00  0.00     0.167 HD
ENDBRANCH  45  47
ENDBRANCH  44  45
ENDBRANCH  43  44
ENDBRANCH  27  43
BRANCH  24  49
HETATM   49  C28 UNL     1      -8.063   4.060   5.077  1.00  0.00     0.151 C 
BRANCH  49  50
HETATM   50  C29 UNL     1      -8.050   2.577   5.115  1.00  0.00     0.143 C 
HETATM   51  O9  UNL     1      -8.809   1.951   4.340  1.00  0.00    -0.650 OA
BRANCH  50  52
HETATM   52  O10 UNL     1      -7.239   1.848   5.965  1.00  0.00    -0.776 OA
HETATM   53  H25 UNL     1      -6.605   1.118   5.615  1.00  0.00     0.167 HD
ENDBRANCH  50  52
ENDBRANCH  49  50
ENDBRANCH  24  49
BRANCH  21  54
HETATM   54  C31 UNL     1      -9.660   4.347   7.722  1.00  0.00     0.052 C 
BRANCH  54  55
HETATM   55  C32 UNL     1     -10.489   3.344   8.443  1.00  0.00     0.115 C 
BRANCH  55  56
HETATM   56  C33 UNL     1     -10.074   1.995   7.911  1.00  0.00     0.139 C 
HETATM   57  O11 UNL     1      -9.052   1.413   8.353  1.00  0.00    -0.650 OA
BRANCH  56  58
HETATM   58  O12 UNL     1     -10.798   1.346   6.919  1.00  0.00    -0.776 OA
HETATM   59  H30 UNL     1     -11.209   1.954   6.206  1.00  0.00     0.167 HD
ENDBRANCH  56  58
ENDBRANCH  55  56
ENDBRANCH  54  55
ENDBRANCH  21  54
BRANCH  18  60
HETATM   60  C35 UNL     1     -15.244   4.639   7.844  1.00  0.00     0.151 C 
BRANCH  60  61
HETATM   61  C36 UNL     1     -15.256   5.315   9.144  1.00  0.00     0.143 C 
HETATM   62  O13 UNL     1     -16.348   5.735   9.620  1.00  0.00    -0.650 OA
BRANCH  61  63
HETATM   63  O14 UNL     1     -14.107   5.518   9.896  1.00  0.00    -0.776 OA
HETATM   64  H33 UNL     1     -13.386   4.816   9.872  1.00  0.00     0.167 HD
ENDBRANCH  61  63
ENDBRANCH  60  61
ENDBRANCH  18  60
BRANCH  14  65
HETATM   65  C38 UNL     1     -17.423   6.088   6.394  1.00  0.00     0.052 C 
BRANCH  65  66
HETATM   66  C39 UNL     1     -17.922   5.030   5.455  1.00  0.00     0.115 C 
BRANCH  66  67
HETATM   67  C40 UNL     1     -18.596   5.715   4.289  1.00  0.00     0.139 C 
HETATM   68  O15 UNL     1     -18.205   5.500   3.112  1.00  0.00    -0.650 OA
BRANCH  67  69
HETATM   69  O16 UNL     1     -19.640   6.574   4.495  1.00  0.00    -0.776 OA
HETATM   70  H38 UNL     1     -20.534   6.252   4.825  1.00  0.00     0.167 HD
ENDBRANCH  67  69
ENDBRANCH  66  67
ENDBRANCH  65  66
ENDBRANCH  14  65
ENDBRANCH   6   7
ENDBRANCH   5   6
ENDBRANCH   2   5
TORSDOF 28
ENDMDL
MODEL 11
REMARK VINA RESULT:      -7.1      6.410     11.207
REMARK  28 active torsions:
REMARK  status: ('A' for Active; 'I' for Inactive)
REMARK    1  A    between atoms: C1_2  and  O2_3 
REMARK    2  A    between atoms: C1_2  and  C2_4 
REMARK    3  A    between atoms: C2_4  and  C3_5 
REMARK    4  A    between atoms: C3_5  and  C4_6 
REMARK    5  A    between atoms: C5_7  and  C6_8 
REMARK    6  A    between atoms: C6_8  and  C7_9 
REMARK    7  A    between atoms: C7_9  and  O4_11 
REMARK    8  A    between atoms: C20_28  and  C21_29 
REMARK    9  A    between atoms: C21_29  and  C22_30 
REMARK   10  A    between atoms: C22_30  and  O6_32 
REMARK   11  A    between atoms: C23_33  and  C24_34 
REMARK   12  A    between atoms: C24_34  and  C25_35 
REMARK   13  A    between atoms: C25_35  and  C26_36 
REMARK   14  A    between atoms: C26_36  and  O8_38 
REMARK   15  A    between atoms: C27_39  and  C28_40 
REMARK   16  A    between atoms: C28_40  and  C29_41 
REMARK   17  A    between atoms: C29_41  and  O10_43 
REMARK   18  A    between atoms: C30_44  and  C31_45 
REMARK   19  A    between atoms: C31_45  and  C32_46 
REMARK   20  A    between atoms: C32_46  and  C33_47 
REMARK   21  A    between atoms: C33_47  and  O12_49 
REMARK   22  A    between atoms: C34_50  and  C35_51 
REMARK   23  A    between atoms: C35_51  and  C36_52 
REMARK   24  A    between atoms: C36_52  and  O14_54 
REMARK   25  A    between atoms: C37_55  and  C38_56 
REMARK   26  A    between atoms: C38_56  and  C39_57 
REMARK   27  A    between atoms: C39_57  and  C40_58 
REMARK   28  A    between atoms: C40_58  and  O16_60 
ROOT
HETATM    1  O1  UNL     1     -20.750  15.359 -11.898  1.00  0.00    -0.650 OA
HETATM    2  C1  UNL     1     -20.700  14.125 -11.838  1.00  0.00     0.139 C 
ENDROOT
BRANCH   2   3
HETATM    3  O2  UNL     1     -21.673  13.407 -12.537  1.00  0.00    -0.776 OA
HETATM    4  H1  UNL     1     -22.656  13.436 -12.288  1.00  0.00     0.167 HD
ENDBRANCH   2   3
BRANCH   2   5
HETATM    5  C2  UNL     1     -19.670  13.395 -11.073  1.00  0.00     0.115 C 
BRANCH   5   6
HETATM    6  C3  UNL     1     -19.340  13.999  -9.757  1.00  0.00     0.052 C 
BRANCH   6   7
HETATM    7  C4  UNL     1     -20.185  13.416  -8.681  1.00  0.00    -0.020 A 
HETATM    8  C5  UNL     1     -20.040  12.234  -8.078  1.00  0.00    -0.011 A 
HETATM    9  C8  UNL     1     -21.080  12.070  -7.090  1.00  0.00     0.067 A 
HETATM   10  C9  UNL     1     -21.421  11.034  -6.193  1.00  0.00     0.062 C 
HETATM   11  N4  UNL     1     -21.830  13.167  -7.122  1.00  0.00    -0.248 NA
HETATM   12  C10 UNL     1     -22.564  11.006  -5.397  1.00  0.00     0.041 A 
HETATM   13  N1  UNL     1     -23.838  11.385  -5.613  1.00  0.00    -0.355 N 
HETATM   14  C37 UNL     1     -22.430  10.545  -4.067  1.00  0.00    -0.022 A 
HETATM   15  C11 UNL     1     -24.515  11.187  -4.466  1.00  0.00     0.042 A 
HETATM   16  H10 UNL     1     -24.262  11.761  -6.574  1.00  0.00     0.166 HD
HETATM   17  C12 UNL     1     -25.835  11.433  -4.083  1.00  0.00     0.062 C 
HETATM   18  C34 UNL     1     -23.640  10.658  -3.491  1.00  0.00    -0.013 A 
HETATM   19  C13 UNL     1     -26.570  12.588  -4.410  1.00  0.00     0.066 A 
HETATM   20  N2  UNL     1     -25.977  13.545  -5.138  1.00  0.00    -0.248 NA
HETATM   21  C30 UNL     1     -27.919  13.020  -4.138  1.00  0.00    -0.020 A 
HETATM   22  C14 UNL     1     -26.844  14.551  -5.351  1.00  0.00     0.067 A 
HETATM   23  C15 UNL     1     -26.426  15.658  -6.102  1.00  0.00     0.062 C 
HETATM   24  C27 UNL     1     -28.110  14.223  -4.705  1.00  0.00    -0.011 A 
HETATM   25  C16 UNL     1     -25.291  15.742  -6.938  1.00  0.00     0.041 A 
HETATM   26  N3  UNL     1     -24.059  15.243  -6.776  1.00  0.00    -0.355 N 
HETATM   27  C23 UNL     1     -25.404  16.401  -8.187  1.00  0.00    -0.022 A 
HETATM   28  C17 UNL     1     -23.352  15.542  -7.872  1.00  0.00     0.042 A 
HETATM   29  H13 UNL     1     -23.673  14.698  -5.873  1.00  0.00     0.166 HD
HETATM   30  C18 UNL     1     -22.021  15.246  -8.223  1.00  0.00     0.062 C 
HETATM   31  C20 UNL     1     -24.164  16.263  -8.772  1.00  0.00    -0.013 A 
HETATM   32  C19 UNL     1     -21.353  14.027  -8.056  1.00  0.00     0.066 A 
BRANCH   8  33
HETATM   33  C6  UNL     1     -18.958  11.263  -8.397  1.00  0.00     0.151 C 
BRANCH  33  34
HETATM   34  C7  UNL     1     -17.887  11.229  -7.375  1.00  0.00     0.143 C 
HETATM   35  O3  UNL     1     -17.203  12.251  -7.172  1.00  0.00    -0.650 OA
BRANCH  34  36
HETATM   36  O4  UNL     1     -17.684  10.058  -6.679  1.00  0.00    -0.776 OA
HETATM   37  H8  UNL     1     -18.187   9.221  -6.975  1.00  0.00     0.167 HD
ENDBRANCH  34  36
ENDBRANCH  33  34
ENDBRANCH   8  33
BRANCH  31  38
HETATM   38  C21 UNL     1     -23.786  16.777 -10.148  1.00  0.00     0.151 C 
BRANCH  38  39
HETATM   39  C22 UNL     1     -24.331  15.814 -11.133  1.00  0.00     0.143 C 
HETATM   40  O5  UNL     1     -23.955  14.623 -11.095  1.00  0.00    -0.650 OA
BRANCH  39  41
HETATM   41  O6  UNL     1     -25.250  16.169 -12.109  1.00  0.00    -0.776 OA
HETATM   42  H17 UNL     1     -25.411  15.576 -12.933  1.00  0.00     0.167 HD
ENDBRANCH  39  41
ENDBRANCH  38  39
ENDBRANCH  31  38
BRANCH  27  43
HETATM   43  C24 UNL     1     -26.565  17.103  -8.797  1.00  0.00     0.052 C 
BRANCH  43  44
HETATM   44  C25 UNL     1     -26.720  18.471  -8.283  1.00  0.00     0.115 C 
BRANCH  44  45
HETATM   45  C26 UNL     1     -27.670  18.731  -7.205  1.00  0.00     0.139 C 
HETATM   46  O7  UNL     1     -27.517  19.264  -6.112  1.00  0.00    -0.650 OA
BRANCH  45  47
HETATM   47  O8  UNL     1     -28.995  18.287  -7.474  1.00  0.00    -0.776 OA
HETATM   48  H22 UNL     1     -29.278  17.943  -8.359  1.00  0.00     0.167 HD
ENDBRANCH  45  47
ENDBRANCH  44  45
ENDBRANCH  43  44
ENDBRANCH  27  43
BRANCH  24  49
HETATM   49  C28 UNL     1     -29.352  15.059  -4.694  1.00  0.00     0.151 C 
BRANCH  49  50
HETATM   50  C29 UNL     1     -29.434  15.870  -3.455  1.00  0.00     0.143 C 
HETATM   51  O9  UNL     1     -28.404  16.456  -3.052  1.00  0.00    -0.650 OA
BRANCH  50  52
HETATM   52  O10 UNL     1     -30.596  16.012  -2.718  1.00  0.00    -0.776 OA
HETATM   53  H25 UNL     1     -31.073  15.203  -2.299  1.00  0.00     0.167 HD
ENDBRANCH  50  52
ENDBRANCH  49  50
ENDBRANCH  24  49
BRANCH  21  54
HETATM   54  C31 UNL     1     -28.962  12.275  -3.379  1.00  0.00     0.052 C 
BRANCH  54  55
HETATM   55  C32 UNL     1     -29.893  11.480  -4.222  1.00  0.00     0.115 C 
BRANCH  55  56
HETATM   56  C33 UNL     1     -29.560  10.031  -3.963  1.00  0.00     0.139 C 
HETATM   57  O11 UNL     1     -28.973   9.681  -2.910  1.00  0.00    -0.650 OA
BRANCH  56  58
HETATM   58  O12 UNL     1     -29.888   9.033  -4.871  1.00  0.00    -0.776 OA
HETATM   59  H30 UNL     1     -30.867   8.734  -4.862  1.00  0.00     0.167 HD
ENDBRANCH  56  58
ENDBRANCH  55  56
ENDBRANCH  54  55
ENDBRANCH  21  54
BRANCH  18  60
HETATM   60  C35 UNL     1     -23.915  10.250  -2.074  1.00  0.00     0.151 C 
BRANCH  60  61
HETATM   61  C36 UNL     1     -23.588  11.389  -1.215  1.00  0.00     0.143 C 
HETATM   62  O13 UNL     1     -22.605  11.316  -0.425  1.00  0.00    -0.650 OA
BRANCH  61  63
HETATM   63  O14 UNL     1     -24.317  12.571  -1.224  1.00  0.00    -0.776 OA
HETATM   64  H33 UNL     1     -24.904  12.780  -0.433  1.00  0.00     0.167 HD
ENDBRANCH  61  63
ENDBRANCH  60  61
ENDBRANCH  18  60
BRANCH  14  65
HETATM   65  C38 UNL     1     -21.225   9.998  -3.358  1.00  0.00     0.052 C 
BRANCH  65  66
HETATM   66  C39 UNL     1     -20.296  11.125  -3.012  1.00  0.00     0.115 C 
BRANCH  66  67
HETATM   67  C40 UNL     1     -19.465  10.702  -1.823  1.00  0.00     0.139 C 
HETATM   68  O15 UNL     1     -18.292  11.136  -1.681  1.00  0.00    -0.650 OA
BRANCH  67  69
HETATM   69  O16 UNL     1     -19.973   9.845  -0.887  1.00  0.00    -0.776 OA
HETATM   70  H38 UNL     1     -20.315   8.932  -1.136  1.00  0.00     0.167 HD
ENDBRANCH  67  69
ENDBRANCH  66  67
ENDBRANCH  65  66
ENDBRANCH  14  65
ENDBRANCH   6   7
ENDBRANCH   5   6
ENDBRANCH   2   5
TORSDOF 28
ENDMDL
MODEL 12
REMARK VINA RESULT:      -7.1     18.018     21.609
REMARK  28 active torsions:
REMARK  status: ('A' for Active; 'I' for Inactive)
REMARK    1  A    between atoms: C1_2  and  O2_3 
REMARK    2  A    between atoms: C1_2  and  C2_4 
REMARK    3  A    between atoms: C2_4  and  C3_5 
REMARK    4  A    between atoms: C3_5  and  C4_6 
REMARK    5  A    between atoms: C5_7  and  C6_8 
REMARK    6  A    between atoms: C6_8  and  C7_9 
REMARK    7  A    between atoms: C7_9  and  O4_11 
REMARK    8  A    between atoms: C20_28  and  C21_29 
REMARK    9  A    between atoms: C21_29  and  C22_30 
REMARK   10  A    between atoms: C22_30  and  O6_32 
REMARK   11  A    between atoms: C23_33  and  C24_34 
REMARK   12  A    between atoms: C24_34  and  C25_35 
REMARK   13  A    between atoms: C25_35  and  C26_36 
REMARK   14  A    between atoms: C26_36  and  O8_38 
REMARK   15  A    between atoms: C27_39  and  C28_40 
REMARK   16  A    between atoms: C28_40  and  C29_41 
REMARK   17  A    between atoms: C29_41  and  O10_43 
REMARK   18  A    between atoms: C30_44  and  C31_45 
REMARK   19  A    between atoms: C31_45  and  C32_46 
REMARK   20  A    between atoms: C32_46  and  C33_47 
REMARK   21  A    between atoms: C33_47  and  O12_49 
REMARK   22  A    between atoms: C34_50  and  C35_51 
REMARK   23  A    between atoms: C35_51  and  C36_52 
REMARK   24  A    between atoms: C36_52  and  O14_54 
REMARK   25  A    between atoms: C37_55  and  C38_56 
REMARK   26  A    between atoms: C38_56  and  C39_57 
REMARK   27  A    between atoms: C39_57  and  C40_58 
REMARK   28  A    between atoms: C40_58  and  O16_60 
ROOT
HETATM    1  O1  UNL     1     -17.565   7.272  10.825  1.00  0.00    -0.650 OA
HETATM    2  C1  UNL     1     -18.210   6.217  10.860  1.00  0.00     0.139 C 
ENDROOT
BRANCH   2   3
HETATM    3  O2  UNL     1     -19.595   6.305  10.704  1.00  0.00    -0.776 OA
HETATM    4  H1  UNL     1     -20.148   5.552  10.311  1.00  0.00     0.167 HD
ENDBRANCH   2   3
BRANCH   2   5
HETATM    5  C2  UNL     1     -17.584   4.895  11.056  1.00  0.00     0.115 C 
BRANCH   5   6
HETATM    6  C3  UNL     1     -17.771   3.954   9.923  1.00  0.00     0.052 C 
BRANCH   6   7
HETATM    7  C4  UNL     1     -17.291   4.556   8.650  1.00  0.00    -0.020 A 
HETATM    8  C5  UNL     1     -18.019   4.907   7.587  1.00  0.00    -0.011 A 
HETATM    9  C8  UNL     1     -17.151   5.455   6.573  1.00  0.00     0.067 A 
HETATM   10  C9  UNL     1     -17.365   5.954   5.269  1.00  0.00     0.062 C 
HETATM   11  N4  UNL     1     -15.913   5.422   7.055  1.00  0.00    -0.248 NA
HETATM   12  C10 UNL     1     -16.360   6.323   4.377  1.00  0.00     0.041 A 
HETATM   13  N1  UNL     1     -15.151   5.801   4.095  1.00  0.00    -0.355 N 
HETATM   14  C37 UNL     1     -16.555   7.496   3.612  1.00  0.00    -0.022 A 
HETATM   15  C11 UNL     1     -14.570   6.603   3.184  1.00  0.00     0.042 A 
HETATM   16  H10 UNL     1     -14.725   4.858   4.513  1.00  0.00     0.166 HD
HETATM   17  C12 UNL     1     -13.321   6.592   2.561  1.00  0.00     0.062 C 
HETATM   18  C34 UNL     1     -15.445   7.668   2.873  1.00  0.00    -0.013 A 
HETATM   19  C13 UNL     1     -12.101   6.304   3.201  1.00  0.00     0.066 A 
HETATM   20  N2  UNL     1     -12.112   6.024   4.512  1.00  0.00    -0.248 NA
HETATM   21  C30 UNL     1     -10.734   6.220   2.749  1.00  0.00    -0.020 A 
HETATM   22  C14 UNL     1     -10.858   5.767   4.927  1.00  0.00     0.067 A 
HETATM   23  C15 UNL     1     -10.644   5.442   6.273  1.00  0.00     0.062 C 
HETATM   24  C27 UNL     1      -9.952   5.893   3.791  1.00  0.00    -0.011 A 
HETATM   25  C16 UNL     1     -11.614   5.047   7.220  1.00  0.00     0.041 A 
HETATM   26  N3  UNL     1     -12.867   5.480   7.406  1.00  0.00    -0.355 N 
HETATM   27  C23 UNL     1     -11.309   3.997   8.121  1.00  0.00    -0.022 A 
HETATM   28  C17 UNL     1     -13.406   4.755   8.393  1.00  0.00     0.042 A 
HETATM   29  H13 UNL     1     -13.371   6.320   6.857  1.00  0.00     0.166 HD
HETATM   30  C18 UNL     1     -14.689   4.788   8.971  1.00  0.00     0.062 C 
HETATM   31  C20 UNL     1     -12.459   3.819   8.860  1.00  0.00    -0.013 A 
HETATM   32  C19 UNL     1     -15.916   4.894   8.303  1.00  0.00     0.066 A 
BRANCH   8  33
HETATM   33  C6  UNL     1     -19.497   4.747   7.500  1.00  0.00     0.151 C 
BRANCH  33  34
HETATM   34  C7  UNL     1     -19.910   3.412   7.007  1.00  0.00     0.143 C 
HETATM   35  O3  UNL     1     -19.760   3.133   5.802  1.00  0.00    -0.650 OA
BRANCH  34  36
HETATM   36  O4  UNL     1     -20.448   2.520   7.908  1.00  0.00    -0.776 OA
HETATM   37  H8  UNL     1     -20.574   2.821   8.875  1.00  0.00     0.167 HD
ENDBRANCH  34  36
ENDBRANCH  33  34
ENDBRANCH   8  33
BRANCH  31  38
HETATM   38  C21 UNL     1     -12.647   2.778   9.945  1.00  0.00     0.151 C 
BRANCH  38  39
HETATM   39  C22 UNL     1     -12.077   3.344  11.190  1.00  0.00     0.143 C 
HETATM   40  O5  UNL     1     -11.042   2.835  11.673  1.00  0.00    -0.650 OA
BRANCH  39  41
HETATM   41  O6  UNL     1     -12.637   4.422  11.857  1.00  0.00    -0.776 OA
HETATM   42  H17 UNL     1     -12.054   5.090  12.378  1.00  0.00     0.167 HD
ENDBRANCH  39  41
ENDBRANCH  38  39
ENDBRANCH  31  38
BRANCH  27  43
HETATM   43  C24 UNL     1     -10.054   3.216   8.291  1.00  0.00     0.052 C 
BRANCH  43  44
HETATM   44  C25 UNL     1     -10.138   1.887   7.667  1.00  0.00     0.115 C 
BRANCH  44  45
HETATM   45  C26 UNL     1      -9.560   1.678   6.343  1.00  0.00     0.139 C 
HETATM   46  O7  UNL     1     -10.080   1.672   5.232  1.00  0.00    -0.650 OA
BRANCH  45  47
HETATM   47  O8  UNL     1      -8.157   1.438   6.348  1.00  0.00    -0.776 OA
HETATM   48  H22 UNL     1      -7.585   1.613   7.137  1.00  0.00     0.167 HD
ENDBRANCH  45  47
ENDBRANCH  44  45
ENDBRANCH  43  44
ENDBRANCH  27  43
BRANCH  24  49
HETATM   49  C28 UNL     1      -8.470   5.688   3.801  1.00  0.00     0.151 C 
BRANCH  49  50
HETATM   50  C29 UNL     1      -8.135   4.250   3.953  1.00  0.00     0.143 C 
HETATM   51  O9  UNL     1      -7.328   3.914   4.850  1.00  0.00    -0.650 OA
BRANCH  50  52
HETATM   52  O10 UNL     1      -8.671   3.259   3.152  1.00  0.00    -0.776 OA
HETATM   53  H25 UNL     1      -8.660   3.328   2.126  1.00  0.00     0.167 HD
ENDBRANCH  50  52
ENDBRANCH  49  50
ENDBRANCH  24  49
BRANCH  21  54
HETATM   54  C31 UNL     1     -10.236   6.433   1.360  1.00  0.00     0.052 C 
BRANCH  54  55
HETATM   55  C32 UNL     1     -10.073   5.188   0.563  1.00  0.00     0.115 C 
BRANCH  55  56
HETATM   56  C33 UNL     1      -8.674   5.230  -0.002  1.00  0.00     0.139 C 
HETATM   57  O11 UNL     1      -7.764   4.506   0.472  1.00  0.00    -0.650 OA
BRANCH  56  58
HETATM   58  O12 UNL     1      -8.338   6.065  -1.060  1.00  0.00    -0.776 OA
HETATM   59  H30 UNL     1      -9.090   6.673  -1.395  1.00  0.00     0.167 HD
ENDBRANCH  56  58
ENDBRANCH  55  56
ENDBRANCH  54  55
ENDBRANCH  21  54
BRANCH  18  60
HETATM   60  C35 UNL     1     -15.271   8.803   1.908  1.00  0.00     0.151 C 
BRANCH  60  61
HETATM   61  C36 UNL     1     -15.525   8.283   0.563  1.00  0.00     0.143 C 
HETATM   62  O13 UNL     1     -15.243   8.990  -0.445  1.00  0.00    -0.650 OA
BRANCH  61  63
HETATM   63  O14 UNL     1     -16.070   7.026   0.333  1.00  0.00    -0.776 OA
HETATM   64  H33 UNL     1     -15.903   6.586  -0.556  1.00  0.00     0.167 HD
ENDBRANCH  61  63
ENDBRANCH  60  61
ENDBRANCH  18  60
BRANCH  14  65
HETATM   65  C38 UNL     1     -17.740   8.415   3.551  1.00  0.00     0.052 C 
BRANCH  65  66
HETATM   66  C39 UNL     1     -18.968   7.625   3.207  1.00  0.00     0.115 C 
BRANCH  66  67
HETATM   67  C40 UNL     1     -18.909   7.277   1.738  1.00  0.00     0.139 C 
HETATM   68  O15 UNL     1     -18.788   6.078   1.373  1.00  0.00    -0.650 OA
BRANCH  67  69
HETATM   69  O16 UNL     1     -18.987   8.256   0.787  1.00  0.00    -0.776 OA
HETATM   70  H38 UNL     1     -19.504   9.105   0.942  1.00  0.00     0.167 HD
ENDBRANCH  67  69
ENDBRANCH  66  67
ENDBRANCH  65  66
ENDBRANCH  14  65
ENDBRANCH   6   7
ENDBRANCH   5   6
ENDBRANCH   2   5
TORSDOF 28
ENDMDL
MODEL 13
REMARK VINA RESULT:      -7.1     17.394     20.978
REMARK  28 active torsions:
REMARK  status: ('A' for Active; 'I' for Inactive)
REMARK    1  A    between atoms: C1_2  and  O2_3 
REMARK    2  A    between atoms: C1_2  and  C2_4 
REMARK    3  A    between atoms: C2_4  and  C3_5 
REMARK    4  A    between atoms: C3_5  and  C4_6 
REMARK    5  A    between atoms: C5_7  and  C6_8 
REMARK    6  A    between atoms: C6_8  and  C7_9 
REMARK    7  A    between atoms: C7_9  and  O4_11 
REMARK    8  A    between atoms: C20_28  and  C21_29 
REMARK    9  A    between atoms: C21_29  and  C22_30 
REMARK   10  A    between atoms: C22_30  and  O6_32 
REMARK   11  A    between atoms: C23_33  and  C24_34 
REMARK   12  A    between atoms: C24_34  and  C25_35 
REMARK   13  A    between atoms: C25_35  and  C26_36 
REMARK   14  A    between atoms: C26_36  and  O8_38 
REMARK   15  A    between atoms: C27_39  and  C28_40 
REMARK   16  A    between atoms: C28_40  and  C29_41 
REMARK   17  A    between atoms: C29_41  and  O10_43 
REMARK   18  A    between atoms: C30_44  and  C31_45 
REMARK   19  A    between atoms: C31_45  and  C32_46 
REMARK   20  A    between atoms: C32_46  and  C33_47 
REMARK   21  A    between atoms: C33_47  and  O12_49 
REMARK   22  A    between atoms: C34_50  and  C35_51 
REMARK   23  A    between atoms: C35_51  and  C36_52 
REMARK   24  A    between atoms: C36_52  and  O14_54 
REMARK   25  A    between atoms: C37_55  and  C38_56 
REMARK   26  A    between atoms: C38_56  and  C39_57 
REMARK   27  A    between atoms: C39_57  and  C40_58 
REMARK   28  A    between atoms: C40_58  and  O16_60 
ROOT
HETATM    1  O1  UNL     1     -16.422   7.087  10.814  1.00  0.00    -0.650 OA
HETATM    2  C1  UNL     1     -16.797   5.909  10.761  1.00  0.00     0.139 C 
ENDROOT
BRANCH   2   3
HETATM    3  O2  UNL     1     -16.072   4.970  11.498  1.00  0.00    -0.776 OA
HETATM    4  H1  UNL     1     -15.620   4.170  11.069  1.00  0.00     0.167 HD
ENDBRANCH   2   3
BRANCH   2   5
HETATM    5  C2  UNL     1     -17.959   5.467   9.965  1.00  0.00     0.115 C 
BRANCH   5   6
HETATM    6  C3  UNL     1     -17.675   4.346   9.034  1.00  0.00     0.052 C 
BRANCH   6   7
HETATM    7  C4  UNL     1     -17.275   4.858   7.696  1.00  0.00    -0.020 A 
HETATM    8  C5  UNL     1     -18.049   5.025   6.620  1.00  0.00    -0.011 A 
HETATM    9  C8  UNL     1     -17.253   5.548   5.536  1.00  0.00     0.067 A 
HETATM   10  C9  UNL     1     -17.533   5.888   4.194  1.00  0.00     0.062 C 
HETATM   11  N4  UNL     1     -16.011   5.684   5.989  1.00  0.00    -0.248 NA
HETATM   12  C10 UNL     1     -16.582   6.257   3.245  1.00  0.00     0.041 A 
HETATM   13  N1  UNL     1     -15.332   5.828   2.988  1.00  0.00    -0.355 N 
HETATM   14  C37 UNL     1     -16.903   7.321   2.371  1.00  0.00    -0.022 A 
HETATM   15  C11 UNL     1     -14.846   6.585   1.987  1.00  0.00     0.042 A 
HETATM   16  H10 UNL     1     -14.809   4.979   3.489  1.00  0.00     0.166 HD
HETATM   17  C12 UNL     1     -13.610   6.631   1.339  1.00  0.00     0.062 C 
HETATM   18  C34 UNL     1     -15.825   7.523   1.592  1.00  0.00    -0.013 A 
HETATM   19  C13 UNL     1     -12.359   6.529   1.975  1.00  0.00     0.066 A 
HETATM   20  N2  UNL     1     -12.323   6.385   3.307  1.00  0.00    -0.248 NA
HETATM   21  C30 UNL     1     -10.997   6.531   1.501  1.00  0.00    -0.020 A 
HETATM   22  C14 UNL     1     -11.045   6.294   3.716  1.00  0.00     0.067 A 
HETATM   23  C15 UNL     1     -10.781   6.131   5.083  1.00  0.00     0.062 C 
HETATM   24  C27 UNL     1     -10.172   6.389   2.551  1.00  0.00    -0.011 A 
HETATM   25  C16 UNL     1     -11.694   5.744   6.087  1.00  0.00     0.041 A 
HETATM   26  N3  UNL     1     -12.981   6.071   6.259  1.00  0.00    -0.355 N 
HETATM   27  C23 UNL     1     -11.274   4.827   7.083  1.00  0.00    -0.022 A 
HETATM   28  C17 UNL     1     -13.432   5.402   7.327  1.00  0.00     0.042 A 
HETATM   29  H13 UNL     1     -13.573   6.798   5.641  1.00  0.00     0.166 HD
HETATM   30  C18 UNL     1     -14.704   5.371   7.930  1.00  0.00     0.062 C 
HETATM   31  C20 UNL     1     -12.391   4.616   7.862  1.00  0.00    -0.013 A 
HETATM   32  C19 UNL     1     -15.944   5.289   7.284  1.00  0.00     0.066 A 
BRANCH   8  33
HETATM   33  C6  UNL     1     -19.505   4.715   6.586  1.00  0.00     0.151 C 
BRANCH  33  34
HETATM   34  C7  UNL     1     -19.788   3.266   6.466  1.00  0.00     0.143 C 
HETATM   35  O3  UNL     1     -18.862   2.485   6.172  1.00  0.00    -0.650 OA
BRANCH  34  36
HETATM   36  O4  UNL     1     -21.076   2.832   6.686  1.00  0.00    -0.776 OA
HETATM   37  H8  UNL     1     -21.802   3.527   6.863  1.00  0.00     0.167 HD
ENDBRANCH  34  36
ENDBRANCH  33  34
ENDBRANCH   8  33
BRANCH  31  38
HETATM   38  C21 UNL     1     -12.460   3.678   9.052  1.00  0.00     0.151 C 
BRANCH  38  39
HETATM   39  C22 UNL     1     -12.173   4.488  10.258  1.00  0.00     0.143 C 
HETATM   40  O5  UNL     1     -10.985   4.662  10.607  1.00  0.00    -0.650 OA
BRANCH  39  41
HETATM   41  O6  UNL     1     -13.164   5.074  11.030  1.00  0.00    -0.776 OA
HETATM   42  H17 UNL     1     -13.626   5.944  10.738  1.00  0.00     0.167 HD
ENDBRANCH  39  41
ENDBRANCH  38  39
ENDBRANCH  31  38
BRANCH  27  43
HETATM   43  C24 UNL     1      -9.947   4.192   7.299  1.00  0.00     0.052 C 
BRANCH  43  44
HETATM   44  C25 UNL     1      -9.729   3.041   6.411  1.00  0.00     0.115 C 
BRANCH  44  45
HETATM   45  C26 UNL     1     -10.088   1.702   6.869  1.00  0.00     0.139 C 
HETATM   46  O7  UNL     1     -11.108   1.284   7.407  1.00  0.00    -0.650 OA
BRANCH  45  47
HETATM   47  O8  UNL     1      -9.081   0.720   6.652  1.00  0.00    -0.776 OA
HETATM   48  H22 UNL     1      -8.245   0.682   7.181  1.00  0.00     0.167 HD
ENDBRANCH  45  47
ENDBRANCH  44  45
ENDBRANCH  43  44
ENDBRANCH  27  43
BRANCH  24  49
HETATM   49  C28 UNL     1      -8.677   6.331   2.547  1.00  0.00     0.151 C 
BRANCH  49  50
HETATM   50  C29 UNL     1      -8.202   4.925   2.563  1.00  0.00     0.143 C 
HETATM   51  O9  UNL     1      -7.723   4.466   3.625  1.00  0.00    -0.650 OA
BRANCH  50  52
HETATM   52  O10 UNL     1      -8.261   4.093   1.460  1.00  0.00    -0.776 OA
HETATM   53  H25 UNL     1      -8.350   4.465   0.505  1.00  0.00     0.167 HD
ENDBRANCH  50  52
ENDBRANCH  49  50
ENDBRANCH  24  49
BRANCH  21  54
HETATM   54  C31 UNL     1     -10.542   6.647   0.086  1.00  0.00     0.052 C 
BRANCH  54  55
HETATM   55  C32 UNL     1     -10.104   8.011  -0.313  1.00  0.00     0.115 C 
BRANCH  55  56
HETATM   56  C33 UNL     1     -11.339   8.721  -0.808  1.00  0.00     0.139 C 
HETATM   57  O11 UNL     1     -11.831   8.455  -1.933  1.00  0.00    -0.650 OA
BRANCH  56  58
HETATM   58  O12 UNL     1     -11.979   9.690  -0.047  1.00  0.00    -0.776 OA
HETATM   59  H30 UNL     1     -12.785   9.363   0.493  1.00  0.00     0.167 HD
ENDBRANCH  56  58
ENDBRANCH  55  56
ENDBRANCH  54  55
ENDBRANCH  21  54
BRANCH  18  60
HETATM   60  C35 UNL     1     -15.778   8.565   0.513  1.00  0.00     0.151 C 
BRANCH  60  61
HETATM   61  C36 UNL     1     -15.294   9.807   1.119  1.00  0.00     0.143 C 
HETATM   62  O13 UNL     1     -15.813  10.910   0.786  1.00  0.00    -0.650 OA
BRANCH  61  63
HETATM   63  O14 UNL     1     -14.275   9.836   2.062  1.00  0.00    -0.776 OA
HETATM   64  H33 UNL     1     -13.581  10.563   1.998  1.00  0.00     0.167 HD
ENDBRANCH  61  63
ENDBRANCH  60  61
ENDBRANCH  18  60
BRANCH  14  65
HETATM   65  C38 UNL     1     -18.173   8.111   2.247  1.00  0.00     0.052 C 
BRANCH  65  66
HETATM   66  C39 UNL     1     -18.177   9.213   3.265  1.00  0.00     0.115 C 
BRANCH  66  67
HETATM   67  C40 UNL     1     -18.778  10.444   2.628  1.00  0.00     0.139 C 
HETATM   68  O15 UNL     1     -19.313  11.333   3.341  1.00  0.00    -0.650 OA
BRANCH  67  69
HETATM   69  O16 UNL     1     -18.750  10.609   1.271  1.00  0.00    -0.776 OA
HETATM   70  H38 UNL     1     -18.545   9.845   0.649  1.00  0.00     0.167 HD
ENDBRANCH  67  69
ENDBRANCH  66  67
ENDBRANCH  65  66
ENDBRANCH  14  65
ENDBRANCH   6   7
ENDBRANCH   5   6
ENDBRANCH   2   5
TORSDOF 28
ENDMDL
MODEL 14
REMARK VINA RESULT:      -7.0     18.312     21.769
REMARK  28 active torsions:
REMARK  status: ('A' for Active; 'I' for Inactive)
REMARK    1  A    between atoms: C1_2  and  O2_3 
REMARK    2  A    between atoms: C1_2  and  C2_4 
REMARK    3  A    between atoms: C2_4  and  C3_5 
REMARK    4  A    between atoms: C3_5  and  C4_6 
REMARK    5  A    between atoms: C5_7  and  C6_8 
REMARK    6  A    between atoms: C6_8  and  C7_9 
REMARK    7  A    between atoms: C7_9  and  O4_11 
REMARK    8  A    between atoms: C20_28  and  C21_29 
REMARK    9  A    between atoms: C21_29  and  C22_30 
REMARK   10  A    between atoms: C22_30  and  O6_32 
REMARK   11  A    between atoms: C23_33  and  C24_34 
REMARK   12  A    between atoms: C24_34  and  C25_35 
REMARK   13  A    between atoms: C25_35  and  C26_36 
REMARK   14  A    between atoms: C26_36  and  O8_38 
REMARK   15  A    between atoms: C27_39  and  C28_40 
REMARK   16  A    between atoms: C28_40  and  C29_41 
REMARK   17  A    between atoms: C29_41  and  O10_43 
REMARK   18  A    between atoms: C30_44  and  C31_45 
REMARK   19  A    between atoms: C31_45  and  C32_46 
REMARK   20  A    between atoms: C32_46  and  C33_47 
REMARK   21  A    between atoms: C33_47  and  O12_49 
REMARK   22  A    between atoms: C34_50  and  C35_51 
REMARK   23  A    between atoms: C35_51  and  C36_52 
REMARK   24  A    between atoms: C36_52  and  O14_54 
REMARK   25  A    between atoms: C37_55  and  C38_56 
REMARK   26  A    between atoms: C38_56  and  C39_57 
REMARK   27  A    between atoms: C39_57  and  C40_58 
REMARK   28  A    between atoms: C40_58  and  O16_60 
ROOT
HETATM    1  O1  UNL     1     -16.985   7.269  10.796  1.00  0.00    -0.650 OA
HETATM    2  C1  UNL     1     -16.793   6.068  10.569  1.00  0.00     0.139 C 
ENDROOT
BRANCH   2   3
HETATM    3  O2  UNL     1     -17.895   5.214  10.657  1.00  0.00    -0.776 OA
HETATM    4  H1  UNL     1     -18.445   5.118  11.504  1.00  0.00     0.167 HD
ENDBRANCH   2   3
BRANCH   2   5
HETATM    5  C2  UNL     1     -15.472   5.514  10.215  1.00  0.00     0.115 C 
BRANCH   5   6
HETATM    6  C3  UNL     1     -15.510   4.450   9.180  1.00  0.00     0.052 C 
BRANCH   6   7
HETATM    7  C4  UNL     1     -15.279   5.021   7.826  1.00  0.00    -0.020 A 
HETATM    8  C5  UNL     1     -16.192   5.310   6.894  1.00  0.00    -0.011 A 
HETATM    9  C8  UNL     1     -15.532   5.849   5.729  1.00  0.00     0.067 A 
HETATM   10  C9  UNL     1     -15.986   6.294   4.469  1.00  0.00     0.062 C 
HETATM   11  N4  UNL     1     -14.229   5.873   5.991  1.00  0.00    -0.248 NA
HETATM   12  C10 UNL     1     -15.165   6.662   3.405  1.00  0.00     0.041 A 
HETATM   13  N1  UNL     1     -14.003   6.169   2.934  1.00  0.00    -0.355 N 
HETATM   14  C37 UNL     1     -15.533   7.799   2.650  1.00  0.00    -0.022 A 
HETATM   15  C11 UNL     1     -13.619   6.957   1.912  1.00  0.00     0.042 A 
HETATM   16  H10 UNL     1     -13.476   5.257   3.300  1.00  0.00     0.166 HD
HETATM   17  C12 UNL     1     -12.495   6.963   1.083  1.00  0.00     0.062 C 
HETATM   18  C34 UNL     1     -14.573   7.981   1.725  1.00  0.00    -0.013 A 
HETATM   19  C13 UNL     1     -11.174   6.738   1.510  1.00  0.00     0.066 A 
HETATM   20  N2  UNL     1     -10.948   6.505   2.811  1.00  0.00    -0.248 NA
HETATM   21  C30 UNL     1      -9.903   6.682   0.831  1.00  0.00    -0.020 A 
HETATM   22  C14 UNL     1      -9.632   6.304   3.011  1.00  0.00     0.067 A 
HETATM   23  C15 UNL     1      -9.178   6.034   4.309  1.00  0.00     0.062 C 
HETATM   24  C27 UNL     1      -8.942   6.417   1.731  1.00  0.00    -0.011 A 
HETATM   25  C16 UNL     1      -9.956   5.642   5.420  1.00  0.00     0.041 A 
HETATM   26  N3  UNL     1     -11.173   6.042   5.808  1.00  0.00    -0.355 N 
HETATM   27  C23 UNL     1      -9.460   4.637   6.286  1.00  0.00    -0.022 A 
HETATM   28  C17 UNL     1     -11.506   5.335   6.895  1.00  0.00     0.042 A 
HETATM   29  H13 UNL     1     -11.795   6.845   5.330  1.00  0.00     0.166 HD
HETATM   30  C18 UNL     1     -12.672   5.348   7.685  1.00  0.00     0.062 C 
HETATM   31  C20 UNL     1     -10.458   4.448   7.217  1.00  0.00    -0.013 A 
HETATM   32  C19 UNL     1     -13.997   5.391   7.236  1.00  0.00     0.066 A 
BRANCH   8  33
HETATM   33  C6  UNL     1     -17.656   5.099   7.069  1.00  0.00     0.151 C 
BRANCH  33  34
HETATM   34  C7  UNL     1     -18.172   3.939   6.306  1.00  0.00     0.143 C 
HETATM   35  O3  UNL     1     -17.927   2.786   6.710  1.00  0.00    -0.650 OA
BRANCH  34  36
HETATM   36  O4  UNL     1     -18.909   4.181   5.168  1.00  0.00    -0.776 OA
HETATM   37  H8  UNL     1     -18.593   4.910   4.529  1.00  0.00     0.167 HD
ENDBRANCH  34  36
ENDBRANCH  33  34
ENDBRANCH   8  33
BRANCH  31  38
HETATM   38  C21 UNL     1     -10.418   3.441   8.350  1.00  0.00     0.151 C 
BRANCH  38  39
HETATM   39  C22 UNL     1     -11.285   2.308   7.951  1.00  0.00     0.143 C 
HETATM   40  O5  UNL     1     -12.470   2.279   8.348  1.00  0.00    -0.650 OA
BRANCH  39  41
HETATM   41  O6  UNL     1     -10.847   1.265   7.150  1.00  0.00    -0.776 OA
HETATM   42  H17 UNL     1     -11.389   0.397   7.059  1.00  0.00     0.167 HD
ENDBRANCH  39  41
ENDBRANCH  38  39
ENDBRANCH  31  38
BRANCH  27  43
HETATM   43  C24 UNL     1      -8.166   3.903   6.259  1.00  0.00     0.052 C 
BRANCH  43  44
HETATM   44  C25 UNL     1      -7.926   3.246   4.966  1.00  0.00     0.115 C 
BRANCH  44  45
HETATM   45  C26 UNL     1      -8.983   2.440   4.362  1.00  0.00     0.139 C 
HETATM   46  O7  UNL     1      -9.715   2.665   3.404  1.00  0.00    -0.650 OA
BRANCH  45  47
HETATM   47  O8  UNL     1      -9.197   1.185   4.996  1.00  0.00    -0.776 OA
HETATM   48  H22 UNL     1      -8.807   0.954   5.876  1.00  0.00     0.167 HD
ENDBRANCH  45  47
ENDBRANCH  44  45
ENDBRANCH  43  44
ENDBRANCH  27  43
BRANCH  24  49
HETATM   49  C28 UNL     1      -7.472   6.261   1.491  1.00  0.00     0.151 C 
BRANCH  49  50
HETATM   50  C29 UNL     1      -6.755   7.534   1.746  1.00  0.00     0.143 C 
HETATM   51  O9  UNL     1      -5.512   7.504   1.887  1.00  0.00    -0.650 OA
BRANCH  50  52
HETATM   52  O10 UNL     1      -7.393   8.758   1.836  1.00  0.00    -0.776 OA
HETATM   53  H25 UNL     1      -7.976   9.006   2.647  1.00  0.00     0.167 HD
ENDBRANCH  50  52
ENDBRANCH  49  50
ENDBRANCH  24  49
BRANCH  21  54
HETATM   54  C31 UNL     1      -9.659   6.860  -0.628  1.00  0.00     0.052 C 
BRANCH  54  55
HETATM   55  C32 UNL     1      -9.798   8.259  -1.113  1.00  0.00     0.115 C 
BRANCH  55  56
HETATM   56  C33 UNL     1      -8.444   8.654  -1.651  1.00  0.00     0.139 C 
HETATM   57  O11 UNL     1      -7.675   9.392  -0.986  1.00  0.00    -0.650 OA
BRANCH  56  58
HETATM   58  O12 UNL     1      -7.996   8.222  -2.892  1.00  0.00    -0.776 OA
HETATM   59  H30 UNL     1      -8.252   8.820  -3.683  1.00  0.00     0.167 HD
ENDBRANCH  56  58
ENDBRANCH  55  56
ENDBRANCH  54  55
ENDBRANCH  21  54
BRANCH  18  60
HETATM   60  C35 UNL     1     -14.611   9.086   0.711  1.00  0.00     0.151 C 
BRANCH  60  61
HETATM   61  C36 UNL     1     -15.586   8.710  -0.315  1.00  0.00     0.143 C 
HETATM   62  O13 UNL     1     -15.571   7.542  -0.795  1.00  0.00    -0.650 OA
BRANCH  61  63
HETATM   63  O14 UNL     1     -16.547   9.589  -0.796  1.00  0.00    -0.776 OA
HETATM   64  H33 UNL     1     -16.316  10.168  -1.586  1.00  0.00     0.167 HD
ENDBRANCH  61  63
ENDBRANCH  60  61
ENDBRANCH  18  60
BRANCH  14  65
HETATM   65  C38 UNL     1     -16.744   8.678   2.769  1.00  0.00     0.052 C 
BRANCH  65  66
HETATM   66  C39 UNL     1     -17.951   7.932   2.279  1.00  0.00     0.115 C 
BRANCH  66  67
HETATM   67  C40 UNL     1     -19.026   8.027   3.336  1.00  0.00     0.139 C 
HETATM   68  O15 UNL     1     -19.550   9.138   3.612  1.00  0.00    -0.650 OA
BRANCH  67  69
HETATM   69  O16 UNL     1     -19.444   6.910   4.005  1.00  0.00    -0.776 OA
HETATM   70  H38 UNL     1     -19.777   6.095   3.519  1.00  0.00     0.167 HD
ENDBRANCH  67  69
ENDBRANCH  66  67
ENDBRANCH  65  66
ENDBRANCH  14  65
ENDBRANCH   6   7
ENDBRANCH   5   6
ENDBRANCH   2   5
TORSDOF 28
ENDMDL
MODEL 15
REMARK VINA RESULT:      -7.0     19.733     23.701
REMARK  28 active torsions:
REMARK  status: ('A' for Active; 'I' for Inactive)
REMARK    1  A    between atoms: C1_2  and  O2_3 
REMARK    2  A    between atoms: C1_2  and  C2_4 
REMARK    3  A    between atoms: C2_4  and  C3_5 
REMARK    4  A    between atoms: C3_5  and  C4_6 
REMARK    5  A    between atoms: C5_7  and  C6_8 
REMARK    6  A    between atoms: C6_8  and  C7_9 
REMARK    7  A    between atoms: C7_9  and  O4_11 
REMARK    8  A    between atoms: C20_28  and  C21_29 
REMARK    9  A    between atoms: C21_29  and  C22_30 
REMARK   10  A    between atoms: C22_30  and  O6_32 
REMARK   11  A    between atoms: C23_33  and  C24_34 
REMARK   12  A    between atoms: C24_34  and  C25_35 
REMARK   13  A    between atoms: C25_35  and  C26_36 
REMARK   14  A    between atoms: C26_36  and  O8_38 
REMARK   15  A    between atoms: C27_39  and  C28_40 
REMARK   16  A    between atoms: C28_40  and  C29_41 
REMARK   17  A    between atoms: C29_41  and  O10_43 
REMARK   18  A    between atoms: C30_44  and  C31_45 
REMARK   19  A    between atoms: C31_45  and  C32_46 
REMARK   20  A    between atoms: C32_46  and  C33_47 
REMARK   21  A    between atoms: C33_47  and  O12_49 
REMARK   22  A    between atoms: C34_50  and  C35_51 
REMARK   23  A    between atoms: C35_51  and  C36_52 
REMARK   24  A    between atoms: C36_52  and  O14_54 
REMARK   25  A    between atoms: C37_55  and  C38_56 
REMARK   26  A    between atoms: C38_56  and  C39_57 
REMARK   27  A    between atoms: C39_57  and  C40_58 
REMARK   28  A    between atoms: C40_58  and  O16_60 
ROOT
HETATM    1  O1  UNL     1     -19.529   9.556   3.685  1.00  0.00    -0.650 OA
HETATM    2  C1  UNL     1     -18.904   8.526   3.405  1.00  0.00     0.139 C 
ENDROOT
BRANCH   2   3
HETATM    3  O2  UNL     1     -19.373   7.760   2.335  1.00  0.00    -0.776 OA
HETATM    4  H1  UNL     1     -20.098   8.088   1.705  1.00  0.00     0.167 HD
ENDBRANCH   2   3
BRANCH   2   5
HETATM    5  C2  UNL     1     -17.703   8.084   4.141  1.00  0.00     0.115 C 
BRANCH   5   6
HETATM    6  C3  UNL     1     -17.214   6.734   3.765  1.00  0.00     0.052 C 
BRANCH   6   7
HETATM    7  C4  UNL     1     -15.794   6.789   3.327  1.00  0.00    -0.020 A 
HETATM    8  C5  UNL     1     -15.326   6.976   2.090  1.00  0.00    -0.011 A 
HETATM    9  C8  UNL     1     -13.883   6.961   2.117  1.00  0.00     0.067 A 
HETATM   10  C9  UNL     1     -12.887   7.086   1.125  1.00  0.00     0.062 C 
HETATM   11  N4  UNL     1     -13.515   6.765   3.380  1.00  0.00    -0.248 NA
HETATM   12  C10 UNL     1     -11.520   6.907   1.333  1.00  0.00     0.041 A 
HETATM   13  N1  UNL     1     -10.816   6.039   2.085  1.00  0.00    -0.355 N 
HETATM   14  C37 UNL     1     -10.633   7.808   0.700  1.00  0.00    -0.022 A 
HETATM   15  C11 UNL     1      -9.516   6.361   1.957  1.00  0.00     0.042 A 
HETATM   16  H10 UNL     1     -11.232   5.190   2.677  1.00  0.00     0.166 HD
HETATM   17  C12 UNL     1      -8.346   5.852   2.524  1.00  0.00     0.062 C 
HETATM   18  C34 UNL     1      -9.391   7.468   1.088  1.00  0.00    -0.013 A 
HETATM   19  C13 UNL     1      -8.200   5.473   3.872  1.00  0.00     0.066 A 
HETATM   20  N2  UNL     1      -9.248   5.609   4.697  1.00  0.00    -0.248 NA
HETATM   21  C30 UNL     1      -7.112   4.919   4.639  1.00  0.00    -0.020 A 
HETATM   22  C14 UNL     1      -8.910   5.183   5.927  1.00  0.00     0.067 A 
HETATM   23  C15 UNL     1      -9.870   5.232   6.947  1.00  0.00     0.062 C 
HETATM   24  C27 UNL     1      -7.523   4.733   5.903  1.00  0.00    -0.011 A 
HETATM   25  C16 UNL     1     -11.265   5.393   6.800  1.00  0.00     0.041 A 
HETATM   26  N3  UNL     1     -11.961   6.161   5.953  1.00  0.00    -0.355 N 
HETATM   27  C23 UNL     1     -12.136   4.619   7.605  1.00  0.00    -0.022 A 
HETATM   28  C17 UNL     1     -13.261   5.923   6.163  1.00  0.00     0.042 A 
HETATM   29  H13 UNL     1     -11.538   6.897   5.218  1.00  0.00     0.166 HD
HETATM   30  C18 UNL     1     -14.410   6.447   5.540  1.00  0.00     0.062 C 
HETATM   31  C20 UNL     1     -13.403   4.963   7.187  1.00  0.00    -0.013 A 
HETATM   32  C19 UNL     1     -14.611   6.652   4.170  1.00  0.00     0.066 A 
BRANCH   8  33
HETATM   33  C6  UNL     1     -16.191   7.173   0.894  1.00  0.00     0.151 C 
BRANCH  33  34
HETATM   34  C7  UNL     1     -16.251   8.583   0.446  1.00  0.00     0.143 C 
HETATM   35  O3  UNL     1     -16.406   8.832  -0.765  1.00  0.00    -0.650 OA
BRANCH  34  36
HETATM   36  O4  UNL     1     -16.133   9.576   1.393  1.00  0.00    -0.776 OA
HETATM   37  H8  UNL     1     -15.210   9.777   1.776  1.00  0.00     0.167 HD
ENDBRANCH  34  36
ENDBRANCH  33  34
ENDBRANCH   8  33
BRANCH  31  38
HETATM   38  C21 UNL     1     -14.692   4.375   7.728  1.00  0.00     0.151 C 
BRANCH  38  39
HETATM   39  C22 UNL     1     -15.191   5.309   8.764  1.00  0.00     0.143 C 
HETATM   40  O5  UNL     1     -16.416   5.351   9.009  1.00  0.00    -0.650 OA
BRANCH  39  41
HETATM   41  O6  UNL     1     -14.360   6.151   9.488  1.00  0.00    -0.776 OA
HETATM   42  H17 UNL     1     -14.543   6.362  10.478  1.00  0.00     0.167 HD
ENDBRANCH  39  41
ENDBRANCH  38  39
ENDBRANCH  31  38
BRANCH  27  43
HETATM   43  C24 UNL     1     -11.827   3.636   8.678  1.00  0.00     0.052 C 
BRANCH  43  44
HETATM   44  C25 UNL     1     -11.693   2.268   8.157  1.00  0.00     0.115 C 
BRANCH  44  45
HETATM   45  C26 UNL     1     -10.382   1.786   7.733  1.00  0.00     0.139 C 
HETATM   46  O7  UNL     1      -9.326   1.685   8.349  1.00  0.00    -0.650 OA
BRANCH  45  47
HETATM   47  O8  UNL     1     -10.324   1.365   6.375  1.00  0.00    -0.776 OA
HETATM   48  H22 UNL     1      -9.607   1.647   5.755  1.00  0.00     0.167 HD
ENDBRANCH  45  47
ENDBRANCH  44  45
ENDBRANCH  43  44
ENDBRANCH  27  43
BRANCH  24  49
HETATM   49  C28 UNL     1      -6.744   4.176   7.053  1.00  0.00     0.151 C 
BRANCH  49  50
HETATM   50  C29 UNL     1      -6.398   2.752   6.819  1.00  0.00     0.143 C 
HETATM   51  O9  UNL     1      -5.232   2.369   7.069  1.00  0.00    -0.650 OA
BRANCH  50  52
HETATM   52  O10 UNL     1      -7.301   1.823   6.336  1.00  0.00    -0.776 OA
HETATM   53  H25 UNL     1      -7.027   1.110   5.647  1.00  0.00     0.167 HD
ENDBRANCH  50  52
ENDBRANCH  49  50
ENDBRANCH  24  49
BRANCH  21  54
HETATM   54  C31 UNL     1      -5.750   4.575   4.141  1.00  0.00     0.052 C 
BRANCH  54  55
HETATM   55  C32 UNL     1      -4.693   5.559   4.498  1.00  0.00     0.115 C 
BRANCH  55  56
HETATM   56  C33 UNL     1      -3.401   4.783   4.562  1.00  0.00     0.139 C 
HETATM   57  O11 UNL     1      -2.444   5.056   3.795  1.00  0.00    -0.650 OA
BRANCH  56  58
HETATM   58  O12 UNL     1      -3.216   3.743   5.464  1.00  0.00    -0.776 OA
HETATM   59  H30 UNL     1      -3.392   3.976   6.445  1.00  0.00     0.167 HD
ENDBRANCH  56  58
ENDBRANCH  55  56
ENDBRANCH  54  55
ENDBRANCH  21  54
BRANCH  18  60
HETATM   60  C35 UNL     1      -8.161   8.182   0.612  1.00  0.00     0.151 C 
BRANCH  60  61
HETATM   61  C36 UNL     1      -7.531   7.344  -0.411  1.00  0.00     0.143 C 
HETATM   62  O13 UNL     1      -6.570   6.587  -0.095  1.00  0.00    -0.650 OA
BRANCH  61  63
HETATM   63  O14 UNL     1      -7.945   7.336  -1.736  1.00  0.00    -0.776 OA
HETATM   64  H33 UNL     1      -8.543   6.590  -2.048  1.00  0.00     0.167 HD
ENDBRANCH  61  63
ENDBRANCH  60  61
ENDBRANCH  18  60
BRANCH  14  65
HETATM   65  C38 UNL     1     -10.925   8.933  -0.249  1.00  0.00     0.052 C 
BRANCH  65  66
HETATM   66  C39 UNL     1     -11.295   8.371  -1.590  1.00  0.00     0.115 C 
BRANCH  66  67
HETATM   67  C40 UNL     1     -10.477   9.083  -2.642  1.00  0.00     0.139 C 
HETATM   68  O15 UNL     1      -9.595   9.915  -2.307  1.00  0.00    -0.650 OA
BRANCH  67  69
HETATM   69  O16 UNL     1     -10.683   8.832  -3.971  1.00  0.00    -0.776 OA
HETATM   70  H38 UNL     1     -11.263   9.427  -4.538  1.00  0.00     0.167 HD
ENDBRANCH  67  69
ENDBRANCH  66  67
ENDBRANCH  65  66
ENDBRANCH  14  65
ENDBRANCH   6   7
ENDBRANCH   5   6
ENDBRANCH   2   5
TORSDOF 28
ENDMDL
MODEL 16
REMARK VINA RESULT:      -7.0     17.842     21.006
REMARK  28 active torsions:
REMARK  status: ('A' for Active; 'I' for Inactive)
REMARK    1  A    between atoms: C1_2  and  O2_3 
REMARK    2  A    between atoms: C1_2  and  C2_4 
REMARK    3  A    between atoms: C2_4  and  C3_5 
REMARK    4  A    between atoms: C3_5  and  C4_6 
REMARK    5  A    between atoms: C5_7  and  C6_8 
REMARK    6  A    between atoms: C6_8  and  C7_9 
REMARK    7  A    between atoms: C7_9  and  O4_11 
REMARK    8  A    between atoms: C20_28  and  C21_29 
REMARK    9  A    between atoms: C21_29  and  C22_30 
REMARK   10  A    between atoms: C22_30  and  O6_32 
REMARK   11  A    between atoms: C23_33  and  C24_34 
REMARK   12  A    between atoms: C24_34  and  C25_35 
REMARK   13  A    between atoms: C25_35  and  C26_36 
REMARK   14  A    between atoms: C26_36  and  O8_38 
REMARK   15  A    between atoms: C27_39  and  C28_40 
REMARK   16  A    between atoms: C28_40  and  C29_41 
REMARK   17  A    between atoms: C29_41  and  O10_43 
REMARK   18  A    between atoms: C30_44  and  C31_45 
REMARK   19  A    between atoms: C31_45  and  C32_46 
REMARK   20  A    between atoms: C32_46  and  C33_47 
REMARK   21  A    between atoms: C33_47  and  O12_49 
REMARK   22  A    between atoms: C34_50  and  C35_51 
REMARK   23  A    between atoms: C35_51  and  C36_52 
REMARK   24  A    between atoms: C36_52  and  O14_54 
REMARK   25  A    between atoms: C37_55  and  C38_56 
REMARK   26  A    between atoms: C38_56  and  C39_57 
REMARK   27  A    between atoms: C39_57  and  C40_58 
REMARK   28  A    between atoms: C40_58  and  O16_60 
ROOT
HETATM    1  O1  UNL     1     -18.257   2.178   7.671  1.00  0.00    -0.650 OA
HETATM    2  C1  UNL     1     -19.158   2.987   7.421  1.00  0.00     0.139 C 
ENDROOT
BRANCH   2   3
HETATM    3  O2  UNL     1     -20.446   2.670   7.859  1.00  0.00    -0.776 OA
HETATM    4  H1  UNL     1     -21.127   3.379   8.111  1.00  0.00     0.167 HD
ENDBRANCH   2   3
BRANCH   2   5
HETATM    5  C2  UNL     1     -18.930   4.251   6.693  1.00  0.00     0.115 C 
BRANCH   5   6
HETATM    6  C3  UNL     1     -18.196   5.282   7.469  1.00  0.00     0.052 C 
BRANCH   6   7
HETATM    7  C4  UNL     1     -16.748   5.269   7.129  1.00  0.00    -0.020 A 
HETATM    8  C5  UNL     1     -15.727   4.914   7.914  1.00  0.00    -0.011 A 
HETATM    9  C8  UNL     1     -14.491   5.049   7.181  1.00  0.00     0.067 A 
HETATM   10  C9  UNL     1     -13.134   4.840   7.509  1.00  0.00     0.062 C 
HETATM   11  N4  UNL     1     -14.801   5.483   5.964  1.00  0.00    -0.248 NA
HETATM   12  C10 UNL     1     -12.052   5.161   6.690  1.00  0.00     0.041 A 
HETATM   13  N1  UNL     1     -11.806   6.196   5.865  1.00  0.00    -0.355 N 
HETATM   14  C37 UNL     1     -10.981   4.240   6.623  1.00  0.00    -0.022 A 
HETATM   15  C11 UNL     1     -10.620   5.962   5.272  1.00  0.00     0.042 A 
HETATM   16  H10 UNL     1     -12.449   7.097   5.725  1.00  0.00     0.166 HD
HETATM   17  C12 UNL     1      -9.884   6.652   4.307  1.00  0.00     0.062 C 
HETATM   18  C34 UNL     1     -10.094   4.739   5.743  1.00  0.00    -0.013 A 
HETATM   19  C13 UNL     1     -10.426   7.263   3.161  1.00  0.00     0.066 A 
HETATM   20  N2  UNL     1     -11.748   7.184   2.953  1.00  0.00    -0.248 NA
HETATM   21  C30 UNL     1      -9.859   8.024   2.075  1.00  0.00    -0.020 A 
HETATM   22  C14 UNL     1     -12.064   7.837   1.819  1.00  0.00     0.067 A 
HETATM   23  C15 UNL     1     -13.406   7.883   1.418  1.00  0.00     0.062 C 
HETATM   24  C27 UNL     1     -10.845   8.386   1.238  1.00  0.00    -0.011 A 
HETATM   25  C16 UNL     1     -14.542   7.587   2.202  1.00  0.00     0.041 A 
HETATM   26  N3  UNL     1     -14.733   6.634   3.122  1.00  0.00    -0.355 N 
HETATM   27  C23 UNL     1     -15.688   8.413   2.092  1.00  0.00    -0.022 A 
HETATM   28  C17 UNL     1     -15.960   6.799   3.631  1.00  0.00     0.042 A 
HETATM   29  H13 UNL     1     -14.010   5.822   3.401  1.00  0.00     0.166 HD
HETATM   30  C18 UNL     1     -16.651   6.087   4.629  1.00  0.00     0.062 C 
HETATM   31  C20 UNL     1     -16.581   7.903   3.009  1.00  0.00    -0.013 A 
HETATM   32  C19 UNL     1     -16.143   5.639   5.855  1.00  0.00     0.066 A 
BRANCH   8  33
HETATM   33  C6  UNL     1     -15.880   4.450   9.321  1.00  0.00     0.151 C 
BRANCH  33  34
HETATM   34  C7  UNL     1     -16.006   5.564  10.289  1.00  0.00     0.143 C 
HETATM   35  O3  UNL     1     -16.467   5.336  11.425  1.00  0.00    -0.650 OA
BRANCH  34  36
HETATM   36  O4  UNL     1     -15.604   6.821   9.896  1.00  0.00    -0.776 OA
HETATM   37  H8  UNL     1     -16.302   7.564   9.852  1.00  0.00     0.167 HD
ENDBRANCH  34  36
ENDBRANCH  33  34
ENDBRANCH   8  33
BRANCH  31  38
HETATM   38  C21 UNL     1     -17.959   8.468   3.294  1.00  0.00     0.151 C 
BRANCH  38  39
HETATM   39  C22 UNL     1     -18.943   7.484   2.786  1.00  0.00     0.143 C 
HETATM   40  O5  UNL     1     -19.714   6.920   3.593  1.00  0.00    -0.650 OA
BRANCH  39  41
HETATM   41  O6  UNL     1     -19.058   7.152   1.445  1.00  0.00    -0.776 OA
HETATM   42  H17 UNL     1     -18.848   6.203   1.109  1.00  0.00     0.167 HD
ENDBRANCH  39  41
ENDBRANCH  38  39
ENDBRANCH  31  38
BRANCH  27  43
HETATM   43  C24 UNL     1     -15.943   9.584   1.210  1.00  0.00     0.052 C 
BRANCH  43  44
HETATM   44  C25 UNL     1     -16.451   9.187  -0.111  1.00  0.00     0.115 C 
BRANCH  44  45
HETATM   45  C26 UNL     1     -17.775   9.632  -0.535  1.00  0.00     0.139 C 
HETATM   46  O7  UNL     1     -18.802   9.820   0.107  1.00  0.00    -0.650 OA
BRANCH  45  47
HETATM   47  O8  UNL     1     -17.887   9.887  -1.931  1.00  0.00    -0.776 OA
HETATM   48  H22 UNL     1     -17.146   9.725  -2.568  1.00  0.00     0.167 HD
ENDBRANCH  45  47
ENDBRANCH  44  45
ENDBRANCH  43  44
ENDBRANCH  27  43
BRANCH  24  49
HETATM   49  C28 UNL     1     -10.736   9.189  -0.020  1.00  0.00     0.151 C 
BRANCH  49  50
HETATM   50  C29 UNL     1     -10.835   8.316  -1.216  1.00  0.00     0.143 C 
HETATM   51  O9  UNL     1     -11.839   8.424  -1.956  1.00  0.00    -0.650 OA
BRANCH  50  52
HETATM   52  O10 UNL     1      -9.870   7.385  -1.555  1.00  0.00    -0.776 OA
HETATM   53  H25 UNL     1      -9.907   6.417  -1.209  1.00  0.00     0.167 HD
ENDBRANCH  50  52
ENDBRANCH  49  50
ENDBRANCH  24  49
BRANCH  21  54
HETATM   54  C31 UNL     1      -8.425   8.387   1.889  1.00  0.00     0.052 C 
BRANCH  54  55
HETATM   55  C32 UNL     1      -7.545   7.254   1.500  1.00  0.00     0.115 C 
BRANCH  55  56
HETATM   56  C33 UNL     1      -7.298   7.403   0.019  1.00  0.00     0.139 C 
HETATM   57  O11 UNL     1      -7.304   8.534  -0.527  1.00  0.00    -0.650 OA
BRANCH  56  58
HETATM   58  O12 UNL     1      -7.055   6.305  -0.796  1.00  0.00    -0.776 OA
HETATM   59  H30 UNL     1      -6.135   6.284  -1.243  1.00  0.00     0.167 HD
ENDBRANCH  56  58
ENDBRANCH  55  56
ENDBRANCH  54  55
ENDBRANCH  21  54
BRANCH  18  60
HETATM   60  C35 UNL     1      -8.801   4.056   5.407  1.00  0.00     0.151 C 
BRANCH  60  61
HETATM   61  C36 UNL     1      -9.095   3.013   4.423  1.00  0.00     0.143 C 
HETATM   62  O13 UNL     1      -9.568   3.331   3.296  1.00  0.00    -0.650 OA
BRANCH  61  63
HETATM   63  O14 UNL     1      -8.874   1.664   4.668  1.00  0.00    -0.776 OA
HETATM   64  H33 UNL     1      -8.158   1.406   5.327  1.00  0.00     0.167 HD
ENDBRANCH  61  63
ENDBRANCH  60  61
ENDBRANCH  18  60
BRANCH  14  65
HETATM   65  C38 UNL     1     -10.776   2.951   7.364  1.00  0.00     0.052 C 
BRANCH  65  66
HETATM   66  C39 UNL     1      -9.974   3.212   8.606  1.00  0.00     0.115 C 
BRANCH  66  67
HETATM   67  C40 UNL     1      -8.837   2.218   8.651  1.00  0.00     0.139 C 
HETATM   68  O15 UNL     1      -8.022   2.227   9.610  1.00  0.00    -0.650 OA
BRANCH  67  69
HETATM   69  O16 UNL     1      -8.678   1.297   7.653  1.00  0.00    -0.776 OA
HETATM   70  H38 UNL     1      -8.390   0.352   7.845  1.00  0.00     0.167 HD
ENDBRANCH  67  69
ENDBRANCH  66  67
ENDBRANCH  65  66
ENDBRANCH  14  65
ENDBRANCH   6   7
ENDBRANCH   5   6
ENDBRANCH   2   5
TORSDOF 28
ENDMDL
MODEL 17
REMARK VINA RESULT:      -7.0     18.608     22.300
REMARK  28 active torsions:
REMARK  status: ('A' for Active; 'I' for Inactive)
REMARK    1  A    between atoms: C1_2  and  O2_3 
REMARK    2  A    between atoms: C1_2  and  C2_4 
REMARK    3  A    between atoms: C2_4  and  C3_5 
REMARK    4  A    between atoms: C3_5  and  C4_6 
REMARK    5  A    between atoms: C5_7  and  C6_8 
REMARK    6  A    between atoms: C6_8  and  C7_9 
REMARK    7  A    between atoms: C7_9  and  O4_11 
REMARK    8  A    between atoms: C20_28  and  C21_29 
REMARK    9  A    between atoms: C21_29  and  C22_30 
REMARK   10  A    between atoms: C22_30  and  O6_32 
REMARK   11  A    between atoms: C23_33  and  C24_34 
REMARK   12  A    between atoms: C24_34  and  C25_35 
REMARK   13  A    between atoms: C25_35  and  C26_36 
REMARK   14  A    between atoms: C26_36  and  O8_38 
REMARK   15  A    between atoms: C27_39  and  C28_40 
REMARK   16  A    between atoms: C28_40  and  C29_41 
REMARK   17  A    between atoms: C29_41  and  O10_43 
REMARK   18  A    between atoms: C30_44  and  C31_45 
REMARK   19  A    between atoms: C31_45  and  C32_46 
REMARK   20  A    between atoms: C32_46  and  C33_47 
REMARK   21  A    between atoms: C33_47  and  O12_49 
REMARK   22  A    between atoms: C34_50  and  C35_51 
REMARK   23  A    between atoms: C35_51  and  C36_52 
REMARK   24  A    between atoms: C36_52  and  O14_54 
REMARK   25  A    between atoms: C37_55  and  C38_56 
REMARK   26  A    between atoms: C38_56  and  C39_57 
REMARK   27  A    between atoms: C39_57  and  C40_58 
REMARK   28  A    between atoms: C40_58  and  O16_60 
ROOT
HETATM    1  O1  UNL     1     -18.546   2.321   8.419  1.00  0.00    -0.650 OA
HETATM    2  C1  UNL     1     -18.028   3.428   8.233  1.00  0.00     0.139 C 
ENDROOT
BRANCH   2   3
HETATM    3  O2  UNL     1     -17.635   4.151   9.362  1.00  0.00    -0.776 OA
HETATM    4  H1  UNL     1     -16.680   4.155   9.703  1.00  0.00     0.167 HD
ENDBRANCH   2   3
BRANCH   2   5
HETATM    5  C2  UNL     1     -17.810   4.003   6.891  1.00  0.00     0.115 C 
BRANCH   5   6
HETATM    6  C3  UNL     1     -17.511   5.457   6.888  1.00  0.00     0.052 C 
BRANCH   6   7
HETATM    7  C4  UNL     1     -16.568   5.801   5.790  1.00  0.00    -0.020 A 
HETATM    8  C5  UNL     1     -16.864   6.101   4.523  1.00  0.00    -0.011 A 
HETATM    9  C8  UNL     1     -15.645   6.371   3.798  1.00  0.00     0.067 A 
HETATM   10  C9  UNL     1     -15.361   6.710   2.457  1.00  0.00     0.062 C 
HETATM   11  N4  UNL     1     -14.639   6.227   4.654  1.00  0.00    -0.248 NA
HETATM   12  C10 UNL     1     -14.084   6.801   1.907  1.00  0.00     0.041 A 
HETATM   13  N1  UNL     1     -12.962   6.075   2.075  1.00  0.00    -0.355 N 
HETATM   14  C37 UNL     1     -13.822   7.871   1.021  1.00  0.00    -0.022 A 
HETATM   15  C11 UNL     1     -11.998   6.651   1.333  1.00  0.00     0.042 A 
HETATM   16  H10 UNL     1     -12.860   5.149   2.689  1.00  0.00     0.166 HD
HETATM   17  C12 UNL     1     -10.642   6.372   1.149  1.00  0.00     0.062 C 
HETATM   18  C34 UNL     1     -12.529   7.777   0.666  1.00  0.00    -0.013 A 
HETATM   19  C13 UNL     1      -9.746   6.003   2.169  1.00  0.00     0.066 A 
HETATM   20  N2  UNL     1     -10.203   5.912   3.426  1.00  0.00    -0.248 NA
HETATM   21  C30 UNL     1      -8.346   5.660   2.190  1.00  0.00    -0.020 A 
HETATM   22  C14 UNL     1      -9.202   5.537   4.243  1.00  0.00     0.067 A 
HETATM   23  C15 UNL     1      -9.469   5.376   5.610  1.00  0.00     0.062 C 
HETATM   24  C27 UNL     1      -7.988   5.371   3.452  1.00  0.00    -0.011 A 
HETATM   25  C16 UNL     1     -10.734   5.261   6.225  1.00  0.00     0.041 A 
HETATM   26  N3  UNL     1     -11.884   5.893   5.960  1.00  0.00    -0.355 N 
HETATM   27  C23 UNL     1     -10.911   4.315   7.264  1.00  0.00    -0.022 A 
HETATM   28  C17 UNL     1     -12.819   5.398   6.780  1.00  0.00     0.042 A 
HETATM   29  H13 UNL     1     -12.038   6.712   5.207  1.00  0.00     0.166 HD
HETATM   30  C18 UNL     1     -14.188   5.697   6.909  1.00  0.00     0.062 C 
HETATM   31  C20 UNL     1     -12.243   4.409   7.605  1.00  0.00    -0.013 A 
HETATM   32  C19 UNL     1     -15.115   5.884   5.876  1.00  0.00     0.066 A 
BRANCH   8  33
HETATM   33  C6  UNL     1     -18.250   6.146   3.979  1.00  0.00     0.151 C 
BRANCH  33  34
HETATM   34  C7  UNL     1     -18.533   5.054   3.019  1.00  0.00     0.143 C 
HETATM   35  O3  UNL     1     -18.678   3.891   3.443  1.00  0.00    -0.650 OA
BRANCH  34  36
HETATM   36  O4  UNL     1     -18.627   5.368   1.681  1.00  0.00    -0.776 OA
HETATM   37  H8  UNL     1     -18.413   6.320   1.388  1.00  0.00     0.167 HD
ENDBRANCH  34  36
ENDBRANCH  33  34
ENDBRANCH   8  33
BRANCH  31  38
HETATM   38  C21 UNL     1     -12.936   3.568   8.659  1.00  0.00     0.151 C 
BRANCH  38  39
HETATM   39  C22 UNL     1     -12.672   4.210   9.967  1.00  0.00     0.143 C 
HETATM   40  O5  UNL     1     -11.962   3.615  10.807  1.00  0.00    -0.650 OA
BRANCH  39  41
HETATM   41  O6  UNL     1     -13.177   5.454  10.315  1.00  0.00    -0.776 OA
HETATM   42  H17 UNL     1     -14.181   5.597  10.480  1.00  0.00     0.167 HD
ENDBRANCH  39  41
ENDBRANCH  38  39
ENDBRANCH  31  38
BRANCH  27  43
HETATM   43  C24 UNL     1      -9.930   3.391   7.894  1.00  0.00     0.052 C 
BRANCH  43  44
HETATM   44  C25 UNL     1     -10.056   2.016   7.390  1.00  0.00     0.115 C 
BRANCH  44  45
HETATM   45  C26 UNL     1      -9.445   1.660   6.113  1.00  0.00     0.139 C 
HETATM   46  O7  UNL     1      -9.922   1.600   4.984  1.00  0.00    -0.650 OA
BRANCH  45  47
HETATM   47  O8  UNL     1      -8.065   1.326   6.198  1.00  0.00    -0.776 OA
HETATM   48  H22 UNL     1      -7.502   1.158   5.400  1.00  0.00     0.167 HD
ENDBRANCH  45  47
ENDBRANCH  44  45
ENDBRANCH  43  44
ENDBRANCH  27  43
BRANCH  24  49
HETATM   49  C28 UNL     1      -6.641   4.957   3.956  1.00  0.00     0.151 C 
BRANCH  49  50
HETATM   50  C29 UNL     1      -5.833   6.141   4.341  1.00  0.00     0.143 C 
HETATM   51  O9  UNL     1      -6.161   6.785   5.362  1.00  0.00    -0.650 OA
BRANCH  50  52
HETATM   52  O10 UNL     1      -4.730   6.570   3.624  1.00  0.00    -0.776 OA
HETATM   53  H25 UNL     1      -4.209   7.417   3.889  1.00  0.00     0.167 HD
ENDBRANCH  50  52
ENDBRANCH  49  50
ENDBRANCH  24  49
BRANCH  21  54
HETATM   54  C31 UNL     1      -7.421   5.602   1.023  1.00  0.00     0.052 C 
BRANCH  54  55
HETATM   55  C32 UNL     1      -6.731   6.883   0.716  1.00  0.00     0.115 C 
BRANCH  55  56
HETATM   56  C33 UNL     1      -7.460   7.482  -0.461  1.00  0.00     0.139 C 
HETATM   57  O11 UNL     1      -7.731   8.709  -0.497  1.00  0.00    -0.650 OA
BRANCH  56  58
HETATM   58  O12 UNL     1      -7.859   6.710  -1.544  1.00  0.00    -0.776 OA
HETATM   59  H30 UNL     1      -8.301   7.224  -2.312  1.00  0.00     0.167 HD
ENDBRANCH  56  58
ENDBRANCH  55  56
ENDBRANCH  54  55
ENDBRANCH  21  54
BRANCH  18  60
HETATM   60  C35 UNL     1     -11.869   8.729  -0.286  1.00  0.00     0.151 C 
BRANCH  60  61
HETATM   61  C36 UNL     1     -11.256   9.796   0.509  1.00  0.00     0.143 C 
HETATM   62  O13 UNL     1     -11.878  10.882   0.683  1.00  0.00    -0.650 OA
BRANCH  61  63
HETATM   63  O14 UNL     1     -10.004   9.673   1.094  1.00  0.00    -0.776 OA
HETATM   64  H33 UNL     1      -9.201   9.568   0.496  1.00  0.00     0.167 HD
ENDBRANCH  61  63
ENDBRANCH  60  61
ENDBRANCH  18  60
BRANCH  14  65
HETATM   65  C38 UNL     1     -14.747   8.935   0.503  1.00  0.00     0.052 C 
BRANCH  65  66
HETATM   66  C39 UNL     1     -15.607   8.363  -0.585  1.00  0.00     0.115 C 
BRANCH  66  67
HETATM   67  C40 UNL     1     -16.959   9.034  -0.521  1.00  0.00     0.139 C 
HETATM   68  O15 UNL     1     -17.454   9.567  -1.548  1.00  0.00    -0.650 OA
BRANCH  67  69
HETATM   69  O16 UNL     1     -17.662   9.071   0.652  1.00  0.00    -0.776 OA
HETATM   70  H38 UNL     1     -17.513   8.393   1.380  1.00  0.00     0.167 HD
ENDBRANCH  67  69
ENDBRANCH  66  67
ENDBRANCH  65  66
ENDBRANCH  14  65
ENDBRANCH   6   7
ENDBRANCH   5   6
ENDBRANCH   2   5
TORSDOF 28
ENDMDL
MODEL 18
REMARK VINA RESULT:      -6.9     18.572     21.414
REMARK  28 active torsions:
REMARK  status: ('A' for Active; 'I' for Inactive)
REMARK    1  A    between atoms: C1_2  and  O2_3 
REMARK    2  A    between atoms: C1_2  and  C2_4 
REMARK    3  A    between atoms: C2_4  and  C3_5 
REMARK    4  A    between atoms: C3_5  and  C4_6 
REMARK    5  A    between atoms: C5_7  and  C6_8 
REMARK    6  A    between atoms: C6_8  and  C7_9 
REMARK    7  A    between atoms: C7_9  and  O4_11 
REMARK    8  A    between atoms: C20_28  and  C21_29 
REMARK    9  A    between atoms: C21_29  and  C22_30 
REMARK   10  A    between atoms: C22_30  and  O6_32 
REMARK   11  A    between atoms: C23_33  and  C24_34 
REMARK   12  A    between atoms: C24_34  and  C25_35 
REMARK   13  A    between atoms: C25_35  and  C26_36 
REMARK   14  A    between atoms: C26_36  and  O8_38 
REMARK   15  A    between atoms: C27_39  and  C28_40 
REMARK   16  A    between atoms: C28_40  and  C29_41 
REMARK   17  A    between atoms: C29_41  and  O10_43 
REMARK   18  A    between atoms: C30_44  and  C31_45 
REMARK   19  A    between atoms: C31_45  and  C32_46 
REMARK   20  A    between atoms: C32_46  and  C33_47 
REMARK   21  A    between atoms: C33_47  and  O12_49 
REMARK   22  A    between atoms: C34_50  and  C35_51 
REMARK   23  A    between atoms: C35_51  and  C36_52 
REMARK   24  A    between atoms: C36_52  and  O14_54 
REMARK   25  A    between atoms: C37_55  and  C38_56 
REMARK   26  A    between atoms: C38_56  and  C39_57 
REMARK   27  A    between atoms: C39_57  and  C40_58 
REMARK   28  A    between atoms: C40_58  and  O16_60 
ROOT
HETATM    1  O1  UNL     1     -18.480  11.491   1.361  1.00  0.00    -0.650 OA
HETATM    2  C1  UNL     1     -18.241  10.349   0.951  1.00  0.00     0.139 C 
ENDROOT
BRANCH   2   3
HETATM    3  O2  UNL     1     -19.327   9.578   0.530  1.00  0.00    -0.776 OA
HETATM    4  H1  UNL     1     -19.954   9.875  -0.210  1.00  0.00     0.167 HD
ENDBRANCH   2   3
BRANCH   2   5
HETATM    5  C2  UNL     1     -16.880   9.781   0.889  1.00  0.00     0.115 C 
BRANCH   5   6
HETATM    6  C3  UNL     1     -16.837   8.301   0.777  1.00  0.00     0.052 C 
BRANCH   6   7
HETATM    7  C4  UNL     1     -16.187   7.699   1.972  1.00  0.00    -0.020 A 
HETATM    8  C5  UNL     1     -16.662   7.642   3.218  1.00  0.00    -0.011 A 
HETATM    9  C8  UNL     1     -15.705   6.967   4.064  1.00  0.00     0.067 A 
HETATM   10  C9  UNL     1     -15.670   6.650   5.439  1.00  0.00     0.062 C 
HETATM   11  N4  UNL     1     -14.672   6.632   3.298  1.00  0.00    -0.248 NA
HETATM   12  C10 UNL     1     -14.577   6.104   6.108  1.00  0.00     0.041 A 
HETATM   13  N1  UNL     1     -13.250   6.309   6.011  1.00  0.00    -0.355 N 
HETATM   14  C37 UNL     1     -14.827   5.091   7.062  1.00  0.00    -0.022 A 
HETATM   15  C11 UNL     1     -12.649   5.458   6.864  1.00  0.00     0.042 A 
HETATM   16  H10 UNL     1     -12.744   7.067   5.368  1.00  0.00     0.166 HD
HETATM   17  C12 UNL     1     -11.311   5.189   7.160  1.00  0.00     0.062 C 
HETATM   18  C34 UNL     1     -13.631   4.691   7.530  1.00  0.00    -0.013 A 
HETATM   19  C13 UNL     1     -10.278   5.091   6.210  1.00  0.00     0.066 A 
HETATM   20  N2  UNL     1     -10.576   5.256   4.914  1.00  0.00    -0.248 NA
HETATM   21  C30 UNL     1      -8.859   4.847   6.303  1.00  0.00    -0.020 A 
HETATM   22  C14 UNL     1      -9.457   5.138   4.176  1.00  0.00     0.067 A 
HETATM   23  C15 UNL     1      -9.545   5.284   2.785  1.00  0.00     0.062 C 
HETATM   24  C27 UNL     1      -8.334   4.870   5.067  1.00  0.00    -0.011 A 
HETATM   25  C16 UNL     1     -10.614   5.843   2.052  1.00  0.00     0.041 A 
HETATM   26  N3  UNL     1     -11.935   5.743   2.238  1.00  0.00    -0.355 N 
HETATM   27  C23 UNL     1     -10.326   6.697   0.958  1.00  0.00    -0.022 A 
HETATM   28  C17 UNL     1     -12.535   6.502   1.313  1.00  0.00     0.042 A 
HETATM   29  H13 UNL     1     -12.455   5.113   3.009  1.00  0.00     0.166 HD
HETATM   30  C18 UNL     1     -13.898   6.762   1.072  1.00  0.00     0.062 C 
HETATM   31  C20 UNL     1     -11.558   7.112   0.500  1.00  0.00    -0.013 A 
HETATM   32  C19 UNL     1     -14.888   7.039   2.023  1.00  0.00     0.066 A 
BRANCH   8  33
HETATM   33  C6  UNL     1     -17.981   8.193   3.634  1.00  0.00     0.151 C 
BRANCH  33  34
HETATM   34  C7  UNL     1     -19.101   7.248   3.417  1.00  0.00     0.143 C 
HETATM   35  O3  UNL     1     -19.435   6.476   4.338  1.00  0.00    -0.650 OA
BRANCH  34  36
HETATM   36  O4  UNL     1     -19.737   7.256   2.196  1.00  0.00    -0.776 OA
HETATM   37  H8  UNL     1     -19.496   7.986   1.526  1.00  0.00     0.167 HD
ENDBRANCH  34  36
ENDBRANCH  33  34
ENDBRANCH   8  33
BRANCH  31  38
HETATM   38  C21 UNL     1     -11.783   8.074  -0.650  1.00  0.00     0.151 C 
BRANCH  38  39
HETATM   39  C22 UNL     1     -11.631   9.443  -0.103  1.00  0.00     0.143 C 
HETATM   40  O5  UNL     1     -12.537   9.916   0.616  1.00  0.00    -0.650 OA
BRANCH  39  41
HETATM   41  O6  UNL     1     -10.523  10.237  -0.350  1.00  0.00    -0.776 OA
HETATM   42  H17 UNL     1     -10.526  10.944  -1.096  1.00  0.00     0.167 HD
ENDBRANCH  39  41
ENDBRANCH  38  39
ENDBRANCH  31  38
BRANCH  27  43
HETATM   43  C24 UNL     1      -9.017   7.102   0.379  1.00  0.00     0.052 C 
BRANCH  43  44
HETATM   44  C25 UNL     1      -8.605   6.230  -0.730  1.00  0.00     0.115 C 
BRANCH  44  45
HETATM   45  C26 UNL     1      -7.980   4.943  -0.438  1.00  0.00     0.139 C 
HETATM   46  O7  UNL     1      -8.465   3.822  -0.332  1.00  0.00    -0.650 OA
BRANCH  45  47
HETATM   47  O8  UNL     1      -6.572   5.007  -0.245  1.00  0.00    -0.776 OA
HETATM   48  H22 UNL     1      -6.099   4.475   0.444  1.00  0.00     0.167 HD
ENDBRANCH  45  47
ENDBRANCH  44  45
ENDBRANCH  43  44
ENDBRANCH  27  43
BRANCH  24  49
HETATM   49  C28 UNL     1      -6.904   4.674   4.671  1.00  0.00     0.151 C 
BRANCH  49  50
HETATM   50  C29 UNL     1      -6.201   5.976   4.562  1.00  0.00     0.143 C 
HETATM   51  O9  UNL     1      -5.376   6.288   5.451  1.00  0.00    -0.650 OA
BRANCH  50  52
HETATM   52  O10 UNL     1      -6.412   6.867   3.525  1.00  0.00    -0.776 OA
HETATM   53  H25 UNL     1      -5.775   7.655   3.351  1.00  0.00     0.167 HD
ENDBRANCH  50  52
ENDBRANCH  49  50
ENDBRANCH  24  49
BRANCH  21  54
HETATM   54  C31 UNL     1      -8.069   4.624   7.547  1.00  0.00     0.052 C 
BRANCH  54  55
HETATM   55  C32 UNL     1      -8.286   3.302   8.190  1.00  0.00     0.115 C 
BRANCH  55  56
HETATM   56  C33 UNL     1      -7.533   2.298   7.352  1.00  0.00     0.139 C 
HETATM   57  O11 UNL     1      -6.288   2.380   7.208  1.00  0.00    -0.650 OA
BRANCH  56  58
HETATM   58  O12 UNL     1      -8.180   1.249   6.711  1.00  0.00    -0.776 OA
HETATM   59  H30 UNL     1      -8.718   1.507   5.880  1.00  0.00     0.167 HD
ENDBRANCH  56  58
ENDBRANCH  55  56
ENDBRANCH  54  55
ENDBRANCH  21  54
BRANCH  18  60
HETATM   60  C35 UNL     1     -13.474   3.633   8.581  1.00  0.00     0.151 C 
BRANCH  60  61
HETATM   61  C36 UNL     1     -13.380   4.309   9.877  1.00  0.00     0.143 C 
HETATM   62  O13 UNL     1     -12.981   3.667  10.890  1.00  0.00    -0.650 OA
BRANCH  61  63
HETATM   63  O14 UNL     1     -13.710   5.646  10.054  1.00  0.00    -0.776 OA
HETATM   64  H33 UNL     1     -13.097   6.346   9.672  1.00  0.00     0.167 HD
ENDBRANCH  61  63
ENDBRANCH  60  61
ENDBRANCH  18  60
BRANCH  14  65
HETATM   65  C38 UNL     1     -16.133   4.525   7.540  1.00  0.00     0.052 C 
BRANCH  65  66
HETATM   66  C39 UNL     1     -16.447   3.275   6.773  1.00  0.00     0.115 C 
BRANCH  66  67
HETATM   67  C40 UNL     1     -17.357   3.641   5.624  1.00  0.00     0.139 C 
HETATM   68  O15 UNL     1     -16.981   3.474   4.435  1.00  0.00    -0.650 OA
BRANCH  67  69
HETATM   69  O16 UNL     1     -18.601   4.159   5.860  1.00  0.00    -0.776 OA
HETATM   70  H38 UNL     1     -18.727   5.044   6.323  1.00  0.00     0.167 HD
ENDBRANCH  67  69
ENDBRANCH  66  67
ENDBRANCH  65  66
ENDBRANCH  14  65
ENDBRANCH   6   7
ENDBRANCH   5   6
ENDBRANCH   2   5
TORSDOF 28
ENDMDL
MODEL 19
REMARK VINA RESULT:      -6.9     19.742     22.948
REMARK  28 active torsions:
REMARK  status: ('A' for Active; 'I' for Inactive)
REMARK    1  A    between atoms: C1_2  and  O2_3 
REMARK    2  A    between atoms: C1_2  and  C2_4 
REMARK    3  A    between atoms: C2_4  and  C3_5 
REMARK    4  A    between atoms: C3_5  and  C4_6 
REMARK    5  A    between atoms: C5_7  and  C6_8 
REMARK    6  A    between atoms: C6_8  and  C7_9 
REMARK    7  A    between atoms: C7_9  and  O4_11 
REMARK    8  A    between atoms: C20_28  and  C21_29 
REMARK    9  A    between atoms: C21_29  and  C22_30 
REMARK   10  A    between atoms: C22_30  and  O6_32 
REMARK   11  A    between atoms: C23_33  and  C24_34 
REMARK   12  A    between atoms: C24_34  and  C25_35 
REMARK   13  A    between atoms: C25_35  and  C26_36 
REMARK   14  A    between atoms: C26_36  and  O8_38 
REMARK   15  A    between atoms: C27_39  and  C28_40 
REMARK   16  A    between atoms: C28_40  and  C29_41 
REMARK   17  A    between atoms: C29_41  and  O10_43 
REMARK   18  A    between atoms: C30_44  and  C31_45 
REMARK   19  A    between atoms: C31_45  and  C32_46 
REMARK   20  A    between atoms: C32_46  and  C33_47 
REMARK   21  A    between atoms: C33_47  and  O12_49 
REMARK   22  A    between atoms: C34_50  and  C35_51 
REMARK   23  A    between atoms: C35_51  and  C36_52 
REMARK   24  A    between atoms: C36_52  and  O14_54 
REMARK   25  A    between atoms: C37_55  and  C38_56 
REMARK   26  A    between atoms: C38_56  and  C39_57 
REMARK   27  A    between atoms: C39_57  and  C40_58 
REMARK   28  A    between atoms: C40_58  and  O16_60 
ROOT
HETATM    1  O1  UNL     1      -8.971  10.470  -2.968  1.00  0.00    -0.650 OA
HETATM    2  C1  UNL     1      -8.989   9.417  -2.318  1.00  0.00     0.139 C 
ENDROOT
BRANCH   2   3
HETATM    3  O2  UNL     1      -8.078   8.422  -2.682  1.00  0.00    -0.776 OA
HETATM    4  H1  UNL     1      -8.371   7.507  -3.005  1.00  0.00     0.167 HD
ENDBRANCH   2   3
BRANCH   2   5
HETATM    5  C2  UNL     1      -9.914   9.178  -1.194  1.00  0.00     0.115 C 
BRANCH   5   6
HETATM    6  C3  UNL     1     -10.508   7.818  -1.166  1.00  0.00     0.052 C 
BRANCH   6   7
HETATM    7  C4  UNL     1     -10.237   7.149   0.135  1.00  0.00    -0.020 A 
HETATM    8  C5  UNL     1      -9.280   6.261   0.414  1.00  0.00    -0.011 A 
HETATM    9  C8  UNL     1      -9.378   5.871   1.800  1.00  0.00     0.067 A 
HETATM   10  C9  UNL     1      -8.658   4.970   2.614  1.00  0.00     0.062 C 
HETATM   11  N4  UNL     1     -10.398   6.541   2.326  1.00  0.00    -0.248 NA
HETATM   12  C10 UNL     1      -8.996   4.625   3.922  1.00  0.00     0.041 A 
HETATM   13  N1  UNL     1     -10.175   4.405   4.534  1.00  0.00    -0.355 N 
HETATM   14  C37 UNL     1      -7.949   4.511   4.865  1.00  0.00    -0.022 A 
HETATM   15  C11 UNL     1      -9.914   4.162   5.831  1.00  0.00     0.042 A 
HETATM   16  H10 UNL     1     -11.179   4.393   4.048  1.00  0.00     0.166 HD
HETATM   17  C12 UNL     1     -10.728   3.914   6.938  1.00  0.00     0.062 C 
HETATM   18  C34 UNL     1      -8.519   4.224   6.048  1.00  0.00    -0.013 A 
HETATM   19  C13 UNL     1     -11.930   4.588   7.225  1.00  0.00     0.066 A 
HETATM   20  N2  UNL     1     -12.343   5.552   6.390  1.00  0.00    -0.248 NA
HETATM   21  C30 UNL     1     -12.909   4.475   8.278  1.00  0.00    -0.020 A 
HETATM   22  C14 UNL     1     -13.509   6.059   6.830  1.00  0.00     0.067 A 
HETATM   23  C15 UNL     1     -14.123   7.082   6.095  1.00  0.00     0.062 C 
HETATM   24  C27 UNL     1     -13.887   5.368   8.058  1.00  0.00    -0.011 A 
HETATM   25  C16 UNL     1     -13.838   7.467   4.767  1.00  0.00     0.041 A 
HETATM   26  N3  UNL     1     -12.667   7.553   4.124  1.00  0.00    -0.355 N 
HETATM   27  C23 UNL     1     -14.910   7.782   3.896  1.00  0.00    -0.022 A 
HETATM   28  C17 UNL     1     -12.922   7.908   2.859  1.00  0.00     0.042 A 
HETATM   29  H13 UNL     1     -11.648   7.388   4.567  1.00  0.00     0.166 HD
HETATM   30  C18 UNL     1     -12.060   8.121   1.766  1.00  0.00     0.062 C 
HETATM   31  C20 UNL     1     -14.314   8.056   2.685  1.00  0.00    -0.013 A 
HETATM   32  C19 UNL     1     -10.967   7.333   1.384  1.00  0.00     0.066 A 
BRANCH   8  33
HETATM   33  C6  UNL     1      -8.280   5.775  -0.577  1.00  0.00     0.151 C 
BRANCH  33  34
HETATM   34  C7  UNL     1      -6.887   6.132  -0.221  1.00  0.00     0.143 C 
HETATM   35  O3  UNL     1      -6.583   7.332  -0.075  1.00  0.00    -0.650 OA
BRANCH  34  36
HETATM   36  O4  UNL     1      -5.972   5.116  -0.063  1.00  0.00    -0.776 OA
HETATM   37  H8  UNL     1      -5.043   5.229  -0.467  1.00  0.00     0.167 HD
ENDBRANCH  34  36
ENDBRANCH  33  34
ENDBRANCH   8  33
BRANCH  31  38
HETATM   38  C21 UNL     1     -15.051   8.418   1.410  1.00  0.00     0.151 C 
BRANCH  38  39
HETATM   39  C22 UNL     1     -15.398   7.145   0.736  1.00  0.00     0.143 C 
HETATM   40  O5  UNL     1     -14.526   6.554   0.063  1.00  0.00    -0.650 OA
BRANCH  39  41
HETATM   41  O6  UNL     1     -16.655   6.566   0.814  1.00  0.00    -0.776 OA
HETATM   42  H17 UNL     1     -16.777   5.591   1.114  1.00  0.00     0.167 HD
ENDBRANCH  39  41
ENDBRANCH  38  39
ENDBRANCH  31  38
BRANCH  27  43
HETATM   43  C24 UNL     1     -16.374   7.825   4.158  1.00  0.00     0.052 C 
BRANCH  43  44
HETATM   44  C25 UNL     1     -16.849   6.626   4.864  1.00  0.00     0.115 C 
BRANCH  44  45
HETATM   45  C26 UNL     1     -16.897   5.348   4.159  1.00  0.00     0.139 C 
HETATM   46  O7  UNL     1     -16.300   4.297   4.361  1.00  0.00    -0.650 OA
BRANCH  45  47
HETATM   47  O8  UNL     1     -17.789   5.326   3.050  1.00  0.00    -0.776 OA
HETATM   48  H22 UNL     1     -18.286   4.515   2.775  1.00  0.00     0.167 HD
ENDBRANCH  45  47
ENDBRANCH  44  45
ENDBRANCH  43  44
ENDBRANCH  27  43
BRANCH  24  49
HETATM   49  C28 UNL     1     -15.114   5.612   8.880  1.00  0.00     0.151 C 
BRANCH  49  50
HETATM   50  C29 UNL     1     -16.246   4.780   8.401  1.00  0.00     0.143 C 
HETATM   51  O9  UNL     1     -17.340   4.851   9.004  1.00  0.00    -0.650 OA
BRANCH  50  52
HETATM   52  O10 UNL     1     -16.152   3.925   7.317  1.00  0.00    -0.776 OA
HETATM   53  H25 UNL     1     -15.652   3.029   7.377  1.00  0.00     0.167 HD
ENDBRANCH  50  52
ENDBRANCH  49  50
ENDBRANCH  24  49
BRANCH  21  54
HETATM   54  C31 UNL     1     -12.886   3.522   9.424  1.00  0.00     0.052 C 
BRANCH  54  55
HETATM   55  C32 UNL     1     -12.304   4.074  10.676  1.00  0.00     0.115 C 
BRANCH  55  56
HETATM   56  C33 UNL     1     -11.134   3.186  11.022  1.00  0.00     0.139 C 
HETATM   57  O11 UNL     1     -10.923   2.828  12.208  1.00  0.00    -0.650 OA
BRANCH  56  58
HETATM   58  O12 UNL     1     -10.248   2.732  10.054  1.00  0.00    -0.776 OA
HETATM   59  H30 UNL     1      -9.262   2.728  10.327  1.00  0.00     0.167 HD
ENDBRANCH  56  58
ENDBRANCH  55  56
ENDBRANCH  54  55
ENDBRANCH  21  54
BRANCH  18  60
HETATM   60  C35 UNL     1      -7.732   4.007   7.307  1.00  0.00     0.151 C 
BRANCH  60  61
HETATM   61  C36 UNL     1      -7.637   2.561   7.524  1.00  0.00     0.143 C 
HETATM   62  O13 UNL     1      -7.872   2.084   8.669  1.00  0.00    -0.650 OA
BRANCH  61  63
HETATM   63  O14 UNL     1      -7.296   1.670   6.515  1.00  0.00    -0.776 OA
HETATM   64  H33 UNL     1      -7.802   0.803   6.449  1.00  0.00     0.167 HD
ENDBRANCH  61  63
ENDBRANCH  60  61
ENDBRANCH  18  60
BRANCH  14  65
HETATM   65  C38 UNL     1      -6.466   4.643   4.672  1.00  0.00     0.052 C 
BRANCH  65  66
HETATM   66  C39 UNL     1      -6.096   6.097   4.626  1.00  0.00     0.115 C 
BRANCH  66  67
HETATM   67  C40 UNL     1      -5.456   6.379   3.287  1.00  0.00     0.139 C 
HETATM   68  O15 UNL     1      -4.863   5.463   2.659  1.00  0.00    -0.650 OA
BRANCH  67  69
HETATM   69  O16 UNL     1      -5.512   7.630   2.739  1.00  0.00    -0.776 OA
HETATM   70  H38 UNL     1      -4.681   8.175   2.576  1.00  0.00     0.167 HD
ENDBRANCH  67  69
ENDBRANCH  66  67
ENDBRANCH  65  66
ENDBRANCH  14  65
ENDBRANCH   6   7
ENDBRANCH   5   6
ENDBRANCH   2   5
TORSDOF 28
ENDMDL
MODEL 20
REMARK VINA RESULT:      -6.8      7.312     13.272
REMARK  28 active torsions:
REMARK  status: ('A' for Active; 'I' for Inactive)
REMARK    1  A    between atoms: C1_2  and  O2_3 
REMARK    2  A    between atoms: C1_2  and  C2_4 
REMARK    3  A    between atoms: C2_4  and  C3_5 
REMARK    4  A    between atoms: C3_5  and  C4_6 
REMARK    5  A    between atoms: C5_7  and  C6_8 
REMARK    6  A    between atoms: C6_8  and  C7_9 
REMARK    7  A    between atoms: C7_9  and  O4_11 
REMARK    8  A    between atoms: C20_28  and  C21_29 
REMARK    9  A    between atoms: C21_29  and  C22_30 
REMARK   10  A    between atoms: C22_30  and  O6_32 
REMARK   11  A    between atoms: C23_33  and  C24_34 
REMARK   12  A    between atoms: C24_34  and  C25_35 
REMARK   13  A    between atoms: C25_35  and  C26_36 
REMARK   14  A    between atoms: C26_36  and  O8_38 
REMARK   15  A    between atoms: C27_39  and  C28_40 
REMARK   16  A    between atoms: C28_40  and  C29_41 
REMARK   17  A    between atoms: C29_41  and  O10_43 
REMARK   18  A    between atoms: C30_44  and  C31_45 
REMARK   19  A    between atoms: C31_45  and  C32_46 
REMARK   20  A    between atoms: C32_46  and  C33_47 
REMARK   21  A    between atoms: C33_47  and  O12_49 
REMARK   22  A    between atoms: C34_50  and  C35_51 
REMARK   23  A    between atoms: C35_51  and  C36_52 
REMARK   24  A    between atoms: C36_52  and  O14_54 
REMARK   25  A    between atoms: C37_55  and  C38_56 
REMARK   26  A    between atoms: C38_56  and  C39_57 
REMARK   27  A    between atoms: C39_57  and  C40_58 
REMARK   28  A    between atoms: C40_58  and  O16_60 
ROOT
HETATM    1  O1  UNL     1     -15.157  11.373  -7.166  1.00  0.00    -0.650 OA
HETATM    2  C1  UNL     1     -16.374  11.153  -7.190  1.00  0.00     0.139 C 
ENDROOT
BRANCH   2   3
HETATM    3  O2  UNL     1     -16.812   9.910  -6.729  1.00  0.00    -0.776 OA
HETATM    4  H1  UNL     1     -16.475   9.499  -5.866  1.00  0.00     0.167 HD
ENDBRANCH   2   3
BRANCH   2   5
HETATM    5  C2  UNL     1     -17.363  12.136  -7.676  1.00  0.00     0.115 C 
BRANCH   5   6
HETATM    6  C3  UNL     1     -18.343  11.591  -8.650  1.00  0.00     0.052 C 
BRANCH   6   7
HETATM    7  C4  UNL     1     -19.544  12.465  -8.736  1.00  0.00    -0.020 A 
HETATM    8  C5  UNL     1     -19.725  13.529  -9.523  1.00  0.00    -0.011 A 
HETATM    9  C8  UNL     1     -21.038  14.080  -9.286  1.00  0.00     0.067 A 
HETATM   10  C9  UNL     1     -21.740  15.189  -9.805  1.00  0.00     0.062 C 
HETATM   11  N4  UNL     1     -21.619  13.327  -8.356  1.00  0.00    -0.248 NA
HETATM   12  C10 UNL     1     -22.973  15.647  -9.343  1.00  0.00     0.041 A 
HETATM   13  N1  UNL     1     -23.507  15.749  -8.112  1.00  0.00    -0.355 N 
HETATM   14  C37 UNL     1     -23.925  16.058 -10.304  1.00  0.00    -0.022 A 
HETATM   15  C11 UNL     1     -24.765  16.204  -8.256  1.00  0.00     0.042 A 
HETATM   16  H10 UNL     1     -22.990  15.529  -7.147  1.00  0.00     0.166 HD
HETATM   17  C12 UNL     1     -25.797  16.461  -7.352  1.00  0.00     0.062 C 
HETATM   18  C34 UNL     1     -25.036  16.404  -9.628  1.00  0.00    -0.013 A 
HETATM   19  C13 UNL     1     -26.135  15.643  -6.258  1.00  0.00     0.066 A 
HETATM   20  N2  UNL     1     -25.432  14.520  -6.051  1.00  0.00    -0.248 NA
HETATM   21  C30 UNL     1     -27.127  15.733  -5.215  1.00  0.00    -0.020 A 
HETATM   22  C14 UNL     1     -25.901  13.891  -4.958  1.00  0.00     0.067 A 
HETATM   23  C15 UNL     1     -25.298  12.691  -4.558  1.00  0.00     0.062 C 
HETATM   24  C27 UNL     1     -27.004  14.669  -4.406  1.00  0.00    -0.011 A 
HETATM   25  C16 UNL     1     -24.048  12.183  -4.975  1.00  0.00     0.041 A 
HETATM   26  N3  UNL     1     -23.464  12.206  -6.179  1.00  0.00    -0.355 N 
HETATM   27  C23 UNL     1     -23.195  11.581  -4.017  1.00  0.00    -0.022 A 
HETATM   28  C17 UNL     1     -22.255  11.647  -6.056  1.00  0.00     0.042 A 
HETATM   29  H13 UNL     1     -23.914  12.595  -7.132  1.00  0.00     0.166 HD
HETATM   30  C18 UNL     1     -21.233  11.433  -7.002  1.00  0.00     0.062 C 
HETATM   31  C20 UNL     1     -22.056  11.248  -4.718  1.00  0.00    -0.013 A 
HETATM   32  C19 UNL     1     -20.781  12.332  -7.975  1.00  0.00     0.066 A 
BRANCH   8  33
HETATM   33  C6  UNL     1     -18.710  14.035 -10.487  1.00  0.00     0.151 C 
BRANCH  33  34
HETATM   34  C7  UNL     1     -19.225  14.140 -11.872  1.00  0.00     0.143 C 
HETATM   35  O3  UNL     1     -19.560  13.104 -12.479  1.00  0.00    -0.650 OA
BRANCH  34  36
HETATM   36  O4  UNL     1     -19.314  15.390 -12.443  1.00  0.00    -0.776 OA
HETATM   37  H8  UNL     1     -18.455  15.912 -12.610  1.00  0.00     0.167 HD
ENDBRANCH  34  36
ENDBRANCH  33  34
ENDBRANCH   8  33
BRANCH  31  38
HETATM   38  C21 UNL     1     -20.822  10.600  -4.121  1.00  0.00     0.151 C 
BRANCH  38  39
HETATM   39  C22 UNL     1     -19.757  11.630  -4.112  1.00  0.00     0.143 C 
HETATM   40  O5  UNL     1     -18.619  11.334  -4.538  1.00  0.00    -0.650 OA
BRANCH  39  41
HETATM   41  O6  UNL     1     -19.956  12.922  -3.650  1.00  0.00    -0.776 OA
HETATM   42  H17 UNL     1     -19.204  13.447  -3.186  1.00  0.00     0.167 HD
ENDBRANCH  39  41
ENDBRANCH  38  39
ENDBRANCH  31  38
BRANCH  27  43
HETATM   43  C24 UNL     1     -23.411  11.332  -2.567  1.00  0.00     0.052 C 
BRANCH  43  44
HETATM   44  C25 UNL     1     -22.806  12.376  -1.727  1.00  0.00     0.115 C 
BRANCH  44  45
HETATM   45  C26 UNL     1     -23.185  13.771  -1.930  1.00  0.00     0.139 C 
HETATM   46  O7  UNL     1     -24.182  14.391  -1.575  1.00  0.00    -0.650 OA
BRANCH  45  47
HETATM   47  O8  UNL     1     -22.236  14.534  -2.666  1.00  0.00    -0.776 OA
HETATM   48  H22 UNL     1     -21.259  14.397  -2.587  1.00  0.00     0.167 HD
ENDBRANCH  45  47
ENDBRANCH  44  45
ENDBRANCH  43  44
ENDBRANCH  27  43
BRANCH  24  49
HETATM   49  C28 UNL     1     -27.809  14.339  -3.188  1.00  0.00     0.151 C 
BRANCH  49  50
HETATM   50  C29 UNL     1     -29.111  13.733  -3.562  1.00  0.00     0.143 C 
HETATM   51  O9  UNL     1     -30.140  14.095  -2.948  1.00  0.00    -0.650 OA
BRANCH  50  52
HETATM   52  O10 UNL     1     -29.246  12.784  -4.560  1.00  0.00    -0.776 OA
HETATM   53  H25 UNL     1     -28.826  11.849  -4.477  1.00  0.00     0.167 HD
ENDBRANCH  50  52
ENDBRANCH  49  50
ENDBRANCH  24  49
BRANCH  21  54
HETATM   54  C31 UNL     1     -28.126  16.822  -5.022  1.00  0.00     0.052 C 
BRANCH  54  55
HETATM   55  C32 UNL     1     -27.564  18.091  -4.487  1.00  0.00     0.115 C 
BRANCH  55  56
HETATM   56  C33 UNL     1     -27.957  18.145  -3.032  1.00  0.00     0.139 C 
HETATM   57  O11 UNL     1     -27.233  18.730  -2.188  1.00  0.00    -0.650 OA
BRANCH  56  58
HETATM   58  O12 UNL     1     -29.127  17.557  -2.568  1.00  0.00    -0.776 OA
HETATM   59  H30 UNL     1     -29.593  18.050  -1.801  1.00  0.00     0.167 HD
ENDBRANCH  56  58
ENDBRANCH  55  56
ENDBRANCH  54  55
ENDBRANCH  21  54
BRANCH  18  60
HETATM   60  C35 UNL     1     -26.276  16.916 -10.298  1.00  0.00     0.151 C 
BRANCH  60  61
HETATM   61  C36 UNL     1     -26.101  18.355 -10.511  1.00  0.00     0.143 C 
HETATM   62  O13 UNL     1     -26.102  19.138  -9.520  1.00  0.00    -0.650 OA
BRANCH  61  63
HETATM   63  O14 UNL     1     -25.929  18.913 -11.770  1.00  0.00    -0.776 OA
HETATM   64  H33 UNL     1     -26.414  18.501 -12.549  1.00  0.00     0.167 HD
ENDBRANCH  61  63
ENDBRANCH  60  61
ENDBRANCH  18  60
BRANCH  14  65
HETATM   65  C38 UNL     1     -23.804  16.149 -11.797  1.00  0.00     0.052 C 
BRANCH  65  66
HETATM   66  C39 UNL     1     -24.264  14.861 -12.414  1.00  0.00     0.115 C 
BRANCH  66  67
HETATM   67  C40 UNL     1     -23.117  14.280 -13.207  1.00  0.00     0.139 C 
HETATM   68  O15 UNL     1     -22.144  15.005 -13.543  1.00  0.00    -0.650 OA
BRANCH  67  69
HETATM   69  O16 UNL     1     -23.119  12.961 -13.569  1.00  0.00    -0.776 OA
HETATM   70  H38 UNL     1     -22.553  12.280 -13.091  1.00  0.00     0.167 HD
ENDBRANCH  67  69
ENDBRANCH  66  67
ENDBRANCH  65  66
ENDBRANCH  14  65
ENDBRANCH   6   7
ENDBRANCH   5   6
ENDBRANCH   2   5
TORSDOF 28
ENDMDL
