MODEL 1
REMARK VINA RESULT:     -10.9      0.000      0.000
REMARK  16 active torsions:
REMARK  status: ('A' for Active; 'I' for Inactive)
REMARK    1  A    between atoms: C_6  and  C_7 
REMARK    2  A    between atoms: C_7  and  C_8 
REMARK    3  A    between atoms: C_8  and  C_9 
REMARK    4  A    between atoms: C_9  and  O_11 
REMARK    5  A    between atoms: C_16  and  C_17 
REMARK    6  A    between atoms: C_17  and  C_18 
REMARK    7  A    between atoms: C_18  and  C_19 
REMARK    8  A    between atoms: C_19  and  O_21 
REMARK    9  A    between atoms: C_28  and  C_29 
REMARK   10  A    between atoms: C_29  and  C_30 
REMARK   11  A    between atoms: C_30  and  C_31 
REMARK   12  A    between atoms: C_31  and  O_33 
REMARK   13  A    between atoms: C_42  and  C_43 
REMARK   14  A    between atoms: C_43  and  C_44 
REMARK   15  A    between atoms: C_44  and  C_45 
REMARK   16  A    between atoms: C_45  and  O_47 
ROOT
HETATM    1  C   UNK     0      -0.021  -6.620  12.198  0.00  0.00     0.051 C 
HETATM    2  C   UNK     0       1.361  -7.238  12.146  0.00  0.00    -0.031 A 
HETATM    3  C   UNK     0       2.599  -6.621  12.059  0.00  0.00     0.021 A 
HETATM    4  N   UNK     0       3.563  -7.570  12.008  0.00  0.00    -0.361 N 
HETATM    5  C   UNK     0       2.968  -8.779  12.068  0.00  0.00     0.022 A 
HETATM    6  C   UNK     0       1.590  -8.608  12.152  0.00  0.00    -0.027 A 
HETATM    7  C   UNK     0       3.584 -10.141  12.139  0.00  0.00     0.115 C 
HETATM    8  C   UNK     0       4.781 -10.300  13.060  0.00  0.00     0.021 A 
HETATM    9  N   UNK     0       5.011  -9.708  14.242  0.00  0.00    -0.361 N 
HETATM   10  C   UNK     0       6.241 -10.073  14.661  0.00  0.00     0.022 A 
HETATM   11  C   UNK     0       6.815 -10.931  13.728  0.00  0.00    -0.027 A 
HETATM   12  C   UNK     0       5.900 -11.079  12.717  0.00  0.00    -0.031 A 
HETATM   13  C   UNK     0       6.092 -11.932  11.483  0.00  0.00     0.051 C 
HETATM   14  C   UNK     0       6.943  -9.587  15.927  0.00  0.00     0.115 C 
HETATM   15  C   UNK     0       7.171  -8.085  15.966  0.00  0.00     0.021 A 
HETATM   16  N   UNK     0       6.244  -7.111  15.894  0.00  0.00    -0.361 N 
HETATM   17  C   UNK     0       6.855  -5.924  15.892  0.00  0.00     0.022 A 
HETATM   18  C   UNK     0       8.246  -6.134  15.976  0.00  0.00    -0.027 A 
HETATM   19  C   UNK     0       8.430  -7.492  16.023  0.00  0.00    -0.031 A 
HETATM   20  C   UNK     0       9.790  -8.154  16.154  0.00  0.00     0.051 C 
HETATM   21  C   UNK     0       6.276  -4.534  15.755  0.00  0.00     0.115 C 
HETATM   22  C   UNK     0       5.059  -4.369  14.876  0.00  0.00     0.022 A 
HETATM   23  N   UNK     0       4.801  -4.949  13.697  0.00  0.00    -0.361 N 
HETATM   24  C   UNK     0       3.541  -4.634  13.336  0.00  0.00     0.021 A 
HETATM   25  C   UNK     0       2.977  -3.822  14.302  0.00  0.00    -0.031 A 
HETATM   26  C   UNK     0       1.605  -3.182  14.326  0.00  0.00     0.051 C 
HETATM   27  C   UNK     0       3.929  -3.638  15.298  0.00  0.00    -0.027 A 
HETATM   28  C   UNK     0       2.769  -5.129  12.125  0.00  0.00     0.115 C 
HETATM   29  H   UNK     0       4.655  -7.380  11.889  0.00  0.00     0.165 HD
HETATM   30  H   UNK     0       4.287  -9.071  14.807  0.00  0.00     0.165 HD
HETATM   31  H   UNK     0       5.134  -7.262  15.893  0.00  0.00     0.165 HD
HETATM   32  H   UNK     0       5.523  -5.552  13.086  0.00  0.00     0.165 HD
ENDROOT
BRANCH   6  33
HETATM   33  C   UNK     0       0.488  -9.635  12.234  0.00  0.00     0.051 C 
BRANCH  33  34
HETATM   34  C   UNK     0       0.090 -10.104  10.855  0.00  0.00     0.114 C 
BRANCH  34  35
HETATM   35  C   UNK     0       0.423 -11.555  10.763  0.00  0.00     0.139 C 
HETATM   36  O   UNK     0       1.441 -11.935  10.115  0.00  0.00    -0.650 OA
BRANCH  35  37
HETATM   37  O   UNK     0      -0.346 -12.539  11.372  0.00  0.00    -0.776 OA
HETATM   38  H   UNK     0      -0.948 -12.340  12.154  0.00  0.00     0.167 HD
ENDBRANCH  35  37
ENDBRANCH  34  35
ENDBRANCH  33  34
ENDBRANCH   6  33
BRANCH  27  39
HETATM   39  C   UNK     0       3.709  -2.758  16.477  0.00  0.00     0.051 C 
BRANCH  39  40
HETATM   40  C   UNK     0       4.526  -1.552  16.605  0.00  0.00     0.114 C 
BRANCH  40  41
HETATM   41  C   UNK     0       3.947  -0.228  16.633  0.00  0.00     0.139 C 
HETATM   42  O   UNK     0       4.611   0.811  16.515  0.00  0.00    -0.650 OA
BRANCH  41  43
HETATM   43  O   UNK     0       2.540  -0.092  16.805  0.00  0.00    -0.776 OA
HETATM   44  H   UNK     0       2.112  -0.831  17.351  0.00  0.00     0.167 HD
ENDBRANCH  41  43
ENDBRANCH  40  41
ENDBRANCH  39  40
ENDBRANCH  27  39
BRANCH  11  45
HETATM   45  C   UNK     0       8.164 -11.598  13.767  0.00  0.00     0.051 C 
BRANCH  45  46
HETATM   46  C   UNK     0       8.106 -13.082  13.788  0.00  0.00     0.114 C 
BRANCH  46  47
HETATM   47  C   UNK     0       7.246 -13.475  14.941  0.00  0.00     0.139 C 
HETATM   48  O   UNK     0       7.658 -13.257  16.088  0.00  0.00    -0.650 OA
BRANCH  47  49
HETATM   49  O   UNK     0       6.024 -14.066  14.737  0.00  0.00    -0.776 OA
HETATM   50  H   UNK     0       5.772 -14.960  15.174  0.00  0.00     0.167 HD
ENDBRANCH  47  49
ENDBRANCH  46  47
ENDBRANCH  45  46
ENDBRANCH  11  45
BRANCH  18  51
HETATM   51  C   UNK     0       9.338  -5.097  16.030  0.00  0.00     0.051 C 
BRANCH  51  52
HETATM   52  C   UNK     0       9.877  -5.120  17.453  0.00  0.00     0.114 C 
BRANCH  52  53
HETATM   53  C   UNK     0       8.821  -4.841  18.445  0.00  0.00     0.139 C 
HETATM   54  O   UNK     0       8.268  -3.730  18.468  0.00  0.00    -0.650 OA
BRANCH  53  55
HETATM   55  O   UNK     0       8.458  -5.815  19.344  0.00  0.00    -0.776 OA
HETATM   56  H   UNK     0       7.900  -6.612  19.147  0.00  0.00     0.167 HD
ENDBRANCH  53  55
ENDBRANCH  52  53
ENDBRANCH  51  52
ENDBRANCH  18  51
TORSDOF 16
ENDMDL
MODEL 2
REMARK VINA RESULT:     -10.9      1.506      1.816
REMARK  16 active torsions:
REMARK  status: ('A' for Active; 'I' for Inactive)
REMARK    1  A    between atoms: C_6  and  C_7 
REMARK    2  A    between atoms: C_7  and  C_8 
REMARK    3  A    between atoms: C_8  and  C_9 
REMARK    4  A    between atoms: C_9  and  O_11 
REMARK    5  A    between atoms: C_16  and  C_17 
REMARK    6  A    between atoms: C_17  and  C_18 
REMARK    7  A    between atoms: C_18  and  C_19 
REMARK    8  A    between atoms: C_19  and  O_21 
REMARK    9  A    between atoms: C_28  and  C_29 
REMARK   10  A    between atoms: C_29  and  C_30 
REMARK   11  A    between atoms: C_30  and  C_31 
REMARK   12  A    between atoms: C_31  and  O_33 
REMARK   13  A    between atoms: C_42  and  C_43 
REMARK   14  A    between atoms: C_43  and  C_44 
REMARK   15  A    between atoms: C_44  and  C_45 
REMARK   16  A    between atoms: C_45  and  O_47 
ROOT
HETATM    1  C   UNK     0       0.575  -5.603  12.588  0.00  0.00     0.051 C 
HETATM    2  C   UNK     0       1.833  -6.422  12.383  0.00  0.00    -0.031 A 
HETATM    3  C   UNK     0       3.159  -6.018  12.405  0.00  0.00     0.021 A 
HETATM    4  N   UNK     0       3.950  -7.085  12.140  0.00  0.00    -0.361 N 
HETATM    5  C   UNK     0       3.157  -8.162  11.960  0.00  0.00     0.022 A 
HETATM    6  C   UNK     0       1.827  -7.782  12.102  0.00  0.00    -0.027 A 
HETATM    7  C   UNK     0       3.533  -9.594  11.737  0.00  0.00     0.115 C 
HETATM    8  C   UNK     0       4.669 -10.140  12.584  0.00  0.00     0.021 A 
HETATM    9  N   UNK     0       4.975  -9.852  13.859  0.00  0.00    -0.361 N 
HETATM   10  C   UNK     0       6.118 -10.499  14.171  0.00  0.00     0.022 A 
HETATM   11  C   UNK     0       6.555 -11.230  13.071  0.00  0.00    -0.027 A 
HETATM   12  C   UNK     0       5.647 -11.009  12.067  0.00  0.00    -0.031 A 
HETATM   13  C   UNK     0       5.713 -11.608  10.681  0.00  0.00     0.051 C 
HETATM   14  C   UNK     0       6.869 -10.411  15.497  0.00  0.00     0.115 C 
HETATM   15  C   UNK     0       7.348  -9.010  15.842  0.00  0.00     0.021 A 
HETATM   16  N   UNK     0       6.600  -7.900  15.989  0.00  0.00    -0.361 N 
HETATM   17  C   UNK     0       7.403  -6.859  16.222  0.00  0.00     0.022 A 
HETATM   18  C   UNK     0       8.736  -7.314  16.236  0.00  0.00    -0.027 A 
HETATM   19  C   UNK     0       8.688  -8.663  15.998  0.00  0.00    -0.031 A 
HETATM   20  C   UNK     0       9.913  -9.558  15.965  0.00  0.00     0.051 C 
HETATM   21  C   UNK     0       7.070  -5.393  16.385  0.00  0.00     0.115 C 
HETATM   22  C   UNK     0       5.914  -4.846  15.582  0.00  0.00     0.022 A 
HETATM   23  N   UNK     0       5.583  -5.118  14.313  0.00  0.00    -0.361 N 
HETATM   24  C   UNK     0       4.401  -4.526  14.047  0.00  0.00     0.021 A 
HETATM   25  C   UNK     0       3.965  -3.848  15.170  0.00  0.00    -0.031 A 
HETATM   26  C   UNK     0       2.720  -3.004  15.350  0.00  0.00     0.051 C 
HETATM   27  C   UNK     0       4.917  -4.038  16.165  0.00  0.00    -0.027 A 
HETATM   28  C   UNK     0       3.578  -4.623  12.774  0.00  0.00     0.115 C 
HETATM   29  H   UNK     0       5.060  -7.062  12.044  0.00  0.00     0.165 HD
HETATM   30  H   UNK     0       4.359  -9.233  14.556  0.00  0.00     0.165 HD
HETATM   31  H   UNK     0       5.480  -7.857  15.977  0.00  0.00     0.165 HD
HETATM   32  H   UNK     0       6.203  -5.695  13.578  0.00  0.00     0.165 HD
ENDROOT
BRANCH   6  33
HETATM   33  C   UNK     0       0.566  -8.602  11.990  0.00  0.00     0.051 C 
BRANCH  33  34
HETATM   34  C   UNK     0       0.176  -9.169  13.334  0.00  0.00     0.114 C 
BRANCH  34  35
HETATM   35  C   UNK     0       0.603 -10.598  13.356  0.00  0.00     0.139 C 
HETATM   36  O   UNK     0       1.298 -11.040  14.317  0.00  0.00    -0.650 OA
BRANCH  35  37
HETATM   37  O   UNK     0       0.266 -11.496  12.351  0.00  0.00    -0.776 OA
HETATM   38  H   UNK     0       0.860 -12.271  12.105  0.00  0.00     0.167 HD
ENDBRANCH  35  37
ENDBRANCH  34  35
ENDBRANCH  33  34
ENDBRANCH   6  33
BRANCH  27  39
HETATM   39  C   UNK     0       4.828  -3.396  17.505  0.00  0.00     0.051 C 
BRANCH  39  40
HETATM   40  C   UNK     0       5.808  -2.367  17.848  0.00  0.00     0.114 C 
BRANCH  40  41
HETATM   41  C   UNK     0       5.611  -0.974  17.517  0.00  0.00     0.139 C 
HETATM   42  O   UNK     0       6.540  -0.184  17.300  0.00  0.00    -0.650 OA
BRANCH  41  43
HETATM   43  O   UNK     0       4.284  -0.465  17.433  0.00  0.00    -0.776 OA
HETATM   44  H   UNK     0       4.048  -0.056  16.537  0.00  0.00     0.167 HD
ENDBRANCH  41  43
ENDBRANCH  40  41
ENDBRANCH  39  40
ENDBRANCH  27  39
BRANCH  11  45
HETATM   45  C   UNK     0       7.771 -12.109  12.947  0.00  0.00     0.051 C 
BRANCH  45  46
HETATM   46  C   UNK     0       7.461 -13.553  12.793  0.00  0.00     0.114 C 
BRANCH  46  47
HETATM   47  C   UNK     0       6.812 -14.003  14.057  0.00  0.00     0.139 C 
HETATM   48  O   UNK     0       7.342 -13.700  15.135  0.00  0.00    -0.650 OA
BRANCH  47  49
HETATM   49  O   UNK     0       5.654 -14.738  14.030  0.00  0.00    -0.776 OA
HETATM   50  H   UNK     0       4.745 -14.332  14.283  0.00  0.00     0.167 HD
ENDBRANCH  47  49
ENDBRANCH  46  47
ENDBRANCH  45  46
ENDBRANCH  11  45
BRANCH  18  51
HETATM   51  C   UNK     0       9.987  -6.510  16.484  0.00  0.00     0.051 C 
BRANCH  51  52
HETATM   52  C   UNK     0      10.302  -5.799  15.176  0.00  0.00     0.114 C 
BRANCH  52  53
HETATM   53  C   UNK     0      10.754  -4.412  15.400  0.00  0.00     0.139 C 
HETATM   54  O   UNK     0      10.007  -3.599  15.966  0.00  0.00    -0.650 OA
BRANCH  53  55
HETATM   55  O   UNK     0      12.002  -4.027  14.976  0.00  0.00    -0.776 OA
HETATM   56  H   UNK     0      12.828  -4.578  15.013  0.00  0.00     0.167 HD
ENDBRANCH  53  55
ENDBRANCH  52  53
ENDBRANCH  51  52
ENDBRANCH  18  51
TORSDOF 16
ENDMDL
MODEL 3
REMARK VINA RESULT:     -10.7     28.277     31.506
REMARK  16 active torsions:
REMARK  status: ('A' for Active; 'I' for Inactive)
REMARK    1  A    between atoms: C_6  and  C_7 
REMARK    2  A    between atoms: C_7  and  C_8 
REMARK    3  A    between atoms: C_8  and  C_9 
REMARK    4  A    between atoms: C_9  and  O_11 
REMARK    5  A    between atoms: C_16  and  C_17 
REMARK    6  A    between atoms: C_17  and  C_18 
REMARK    7  A    between atoms: C_18  and  C_19 
REMARK    8  A    between atoms: C_19  and  O_21 
REMARK    9  A    between atoms: C_28  and  C_29 
REMARK   10  A    between atoms: C_29  and  C_30 
REMARK   11  A    between atoms: C_30  and  C_31 
REMARK   12  A    between atoms: C_31  and  O_33 
REMARK   13  A    between atoms: C_42  and  C_43 
REMARK   14  A    between atoms: C_43  and  C_44 
REMARK   15  A    between atoms: C_44  and  C_45 
REMARK   16  A    between atoms: C_45  and  O_47 
ROOT
HETATM    1  C   UNK     0      13.589  19.856  -2.342  0.00  0.00     0.051 C 
HETATM    2  C   UNK     0      13.746  18.462  -2.914  0.00  0.00    -0.031 A 
HETATM    3  C   UNK     0      13.070  17.296  -2.589  0.00  0.00     0.021 A 
HETATM    4  N   UNK     0      13.562  16.278  -3.334  0.00  0.00    -0.361 N 
HETATM    5  C   UNK     0      14.531  16.771  -4.133  0.00  0.00     0.022 A 
HETATM    6  C   UNK     0      14.674  18.134  -3.894  0.00  0.00    -0.027 A 
HETATM    7  C   UNK     0      15.320  16.087  -5.205  0.00  0.00     0.115 C 
HETATM    8  C   UNK     0      14.553  15.157  -6.128  0.00  0.00     0.021 A 
HETATM    9  N   UNK     0      13.299  15.284  -6.590  0.00  0.00    -0.361 N 
HETATM   10  C   UNK     0      13.001  14.177  -7.303  0.00  0.00     0.022 A 
HETATM   11  C   UNK     0      14.095  13.317  -7.307  0.00  0.00    -0.027 A 
HETATM   12  C   UNK     0      15.076  13.928  -6.569  0.00  0.00    -0.031 A 
HETATM   13  C   UNK     0      16.453  13.360  -6.305  0.00  0.00     0.051 C 
HETATM   14  C   UNK     0      11.660  13.863  -7.960  0.00  0.00     0.115 C 
HETATM   15  C   UNK     0      10.500  13.773  -6.981  0.00  0.00     0.021 A 
HETATM   16  N   UNK     0      10.063  14.725  -6.136  0.00  0.00    -0.361 N 
HETATM   17  C   UNK     0       9.068  14.230  -5.395  0.00  0.00     0.022 A 
HETATM   18  C   UNK     0       8.840  12.895  -5.783  0.00  0.00    -0.027 A 
HETATM   19  C   UNK     0       9.742  12.621  -6.778  0.00  0.00    -0.031 A 
HETATM   20  C   UNK     0       9.816  11.292  -7.508  0.00  0.00     0.051 C 
HETATM   21  C   UNK     0       8.293  14.863  -4.262  0.00  0.00     0.115 C 
HETATM   22  C   UNK     0       9.033  15.825  -3.362  0.00  0.00     0.022 A 
HETATM   23  N   UNK     0      10.282  15.726  -2.890  0.00  0.00    -0.361 N 
HETATM   24  C   UNK     0      10.585  16.873  -2.250  0.00  0.00     0.021 A 
HETATM   25  C   UNK     0       9.501  17.728  -2.302  0.00  0.00    -0.031 A 
HETATM   26  C   UNK     0       9.345  19.107  -1.696  0.00  0.00     0.051 C 
HETATM   27  C   UNK     0       8.495  17.080  -3.009  0.00  0.00    -0.027 A 
HETATM   28  C   UNK     0      11.914  17.268  -1.629  0.00  0.00     0.115 C 
HETATM   29  H   UNK     0      13.248  15.211  -3.262  0.00  0.00     0.165 HD
HETATM   30  H   UNK     0      12.640  16.177  -6.458  0.00  0.00     0.165 HD
HETATM   31  H   UNK     0      10.431  15.783  -6.093  0.00  0.00     0.165 HD
HETATM   32  H   UNK     0      10.947  14.827  -2.967  0.00  0.00     0.165 HD
ENDROOT
BRANCH   6  33
HETATM   33  C   UNK     0      15.615  19.134  -4.516  0.00  0.00     0.051 C 
BRANCH  33  34
HETATM   34  C   UNK     0      15.153  19.512  -5.903  0.00  0.00     0.114 C 
BRANCH  34  35
HETATM   35  C   UNK     0      14.345  20.759  -5.781  0.00  0.00     0.139 C 
HETATM   36  O   UNK     0      13.108  20.745  -6.045  0.00  0.00    -0.650 OA
BRANCH  35  37
HETATM   37  O   UNK     0      14.894  21.971  -5.378  0.00  0.00    -0.776 OA
HETATM   38  H   UNK     0      15.716  22.357  -5.814  0.00  0.00     0.167 HD
ENDBRANCH  35  37
ENDBRANCH  34  35
ENDBRANCH  33  34
ENDBRANCH   6  33
BRANCH  27  39
HETATM   39  C   UNK     0       7.141  17.663  -3.212  0.00  0.00     0.051 C 
BRANCH  39  40
HETATM   40  C   UNK     0       6.570  18.480  -2.141  0.00  0.00     0.114 C 
BRANCH  40  41
HETATM   41  C   UNK     0       5.745  19.636  -2.410  0.00  0.00     0.139 C 
HETATM   42  O   UNK     0       4.828  20.010  -1.666  0.00  0.00    -0.650 OA
BRANCH  41  43
HETATM   43  O   UNK     0       5.985  20.397  -3.589  0.00  0.00    -0.776 OA
HETATM   44  H   UNK     0       5.838  19.889  -4.453  0.00  0.00     0.167 HD
ENDBRANCH  41  43
ENDBRANCH  40  41
ENDBRANCH  39  40
ENDBRANCH  27  39
BRANCH  11  45
HETATM   45  C   UNK     0      14.235  11.974  -7.972  0.00  0.00     0.051 C 
BRANCH  45  46
HETATM   46  C   UNK     0      14.571  10.868  -7.040  0.00  0.00     0.114 C 
BRANCH  46  47
HETATM   47  C   UNK     0      13.464   9.873  -7.118  0.00  0.00     0.139 C 
HETATM   48  O   UNK     0      13.513   8.999  -7.995  0.00  0.00    -0.650 OA
BRANCH  47  49
HETATM   49  O   UNK     0      12.412   9.922  -6.239  0.00  0.00    -0.776 OA
HETATM   50  H   UNK     0      12.409   9.389  -5.361  0.00  0.00     0.167 HD
ENDBRANCH  47  49
ENDBRANCH  46  47
ENDBRANCH  45  46
ENDBRANCH  11  45
BRANCH  18  51
HETATM   51  C   UNK     0       7.804  11.940  -5.250  0.00  0.00     0.051 C 
BRANCH  51  52
HETATM   52  C   UNK     0       6.534  12.201  -6.045  0.00  0.00     0.114 C 
BRANCH  52  53
HETATM   53  C   UNK     0       5.515  12.900  -5.239  0.00  0.00     0.139 C 
HETATM   54  O   UNK     0       4.508  13.376  -5.787  0.00  0.00    -0.650 OA
BRANCH  53  55
HETATM   55  O   UNK     0       5.689  13.024  -3.882  0.00  0.00    -0.776 OA
HETATM   56  H   UNK     0       5.038  12.755  -3.183  0.00  0.00     0.167 HD
ENDBRANCH  53  55
ENDBRANCH  52  53
ENDBRANCH  51  52
ENDBRANCH  18  51
TORSDOF 16
ENDMDL
MODEL 4
REMARK VINA RESULT:     -10.7      1.979      6.967
REMARK  16 active torsions:
REMARK  status: ('A' for Active; 'I' for Inactive)
REMARK    1  A    between atoms: C_6  and  C_7 
REMARK    2  A    between atoms: C_7  and  C_8 
REMARK    3  A    between atoms: C_8  and  C_9 
REMARK    4  A    between atoms: C_9  and  O_11 
REMARK    5  A    between atoms: C_16  and  C_17 
REMARK    6  A    between atoms: C_17  and  C_18 
REMARK    7  A    between atoms: C_18  and  C_19 
REMARK    8  A    between atoms: C_19  and  O_21 
REMARK    9  A    between atoms: C_28  and  C_29 
REMARK   10  A    between atoms: C_29  and  C_30 
REMARK   11  A    between atoms: C_30  and  C_31 
REMARK   12  A    between atoms: C_31  and  O_33 
REMARK   13  A    between atoms: C_42  and  C_43 
REMARK   14  A    between atoms: C_43  and  C_44 
REMARK   15  A    between atoms: C_44  and  C_45 
REMARK   16  A    between atoms: C_45  and  O_47 
ROOT
HETATM    1  C   UNK     0       8.219 -11.602  13.697  0.00  0.00     0.051 C 
HETATM    2  C   UNK     0       6.853 -10.947  13.720  0.00  0.00    -0.031 A 
HETATM    3  C   UNK     0       6.270 -10.162  14.702  0.00  0.00     0.021 A 
HETATM    4  N   UNK     0       5.021  -9.818  14.308  0.00  0.00    -0.361 N 
HETATM    5  C   UNK     0       4.798 -10.360  13.093  0.00  0.00     0.022 A 
HETATM    6  C   UNK     0       5.922 -11.076  12.696  0.00  0.00    -0.027 A 
HETATM    7  C   UNK     0       3.618 -10.207  12.184  0.00  0.00     0.115 C 
HETATM    8  C   UNK     0       3.039  -8.810  12.049  0.00  0.00     0.021 A 
HETATM    9  N   UNK     0       3.684  -7.633  12.049  0.00  0.00    -0.361 N 
HETATM   10  C   UNK     0       2.761  -6.649  11.998  0.00  0.00     0.022 A 
HETATM   11  C   UNK     0       1.487  -7.208  11.955  0.00  0.00    -0.027 A 
HETATM   12  C   UNK     0       1.655  -8.568  11.987  0.00  0.00    -0.031 A 
HETATM   13  C   UNK     0       0.538  -9.588  11.953  0.00  0.00     0.051 C 
HETATM   14  C   UNK     0       3.040  -5.149  12.042  0.00  0.00     0.115 C 
HETATM   15  C   UNK     0       3.733  -4.689  13.315  0.00  0.00     0.021 A 
HETATM   16  N   UNK     0       4.918  -5.102  13.800  0.00  0.00    -0.361 N 
HETATM   17  C   UNK     0       5.142  -4.510  14.975  0.00  0.00     0.022 A 
HETATM   18  C   UNK     0       4.054  -3.663  15.265  0.00  0.00    -0.027 A 
HETATM   19  C   UNK     0       3.179  -3.783  14.217  0.00  0.00    -0.031 A 
HETATM   20  C   UNK     0       1.880  -3.006  14.109  0.00  0.00     0.051 C 
HETATM   21  C   UNK     0       6.283  -4.687  15.951  0.00  0.00     0.115 C 
HETATM   22  C   UNK     0       6.899  -6.062  16.063  0.00  0.00     0.022 A 
HETATM   23  N   UNK     0       6.281  -7.250  16.062  0.00  0.00    -0.361 N 
HETATM   24  C   UNK     0       7.221  -8.216  16.034  0.00  0.00     0.021 A 
HETATM   25  C   UNK     0       8.475  -7.636  16.028  0.00  0.00    -0.031 A 
HETATM   26  C   UNK     0       9.835  -8.303  16.040  0.00  0.00     0.051 C 
HETATM   27  C   UNK     0       8.294  -6.257  16.047  0.00  0.00    -0.027 A 
HETATM   28  C   UNK     0       7.010  -9.717  15.932  0.00  0.00     0.115 C 
HETATM   29  H   UNK     0       4.291  -9.227  14.909  0.00  0.00     0.165 HD
HETATM   30  H   UNK     0       4.793  -7.495  12.035  0.00  0.00     0.165 HD
HETATM   31  H   UNK     0       5.635  -5.790  13.281  0.00  0.00     0.165 HD
HETATM   32  H   UNK     0       5.174  -7.419  16.124  0.00  0.00     0.165 HD
ENDROOT
BRANCH   6  33
HETATM   33  C   UNK     0       6.176 -11.865  11.437  0.00  0.00     0.051 C 
BRANCH  33  34
HETATM   34  C   UNK     0       7.047 -11.083  10.482  0.00  0.00     0.114 C 
BRANCH  34  35
HETATM   35  C   UNK     0       8.256 -11.909  10.202  0.00  0.00     0.139 C 
HETATM   36  O   UNK     0       9.334 -11.356   9.836  0.00  0.00    -0.650 OA
BRANCH  35  37
HETATM   37  O   UNK     0       8.264 -13.293  10.329  0.00  0.00    -0.776 OA
HETATM   38  H   UNK     0       8.550 -13.750  11.180  0.00  0.00     0.167 HD
ENDBRANCH  35  37
ENDBRANCH  34  35
ENDBRANCH  33  34
ENDBRANCH   6  33
BRANCH  27  39
HETATM   39  C   UNK     0       9.425  -5.293  16.118  0.00  0.00     0.051 C 
BRANCH  39  40
HETATM   40  C   UNK     0       9.777  -4.730  17.421  0.00  0.00     0.114 C 
BRANCH  40  41
HETATM   41  C   UNK     0       8.829  -4.657  18.510  0.00  0.00     0.139 C 
HETATM   42  O   UNK     0       8.141  -3.656  18.752  0.00  0.00    -0.650 OA
BRANCH  41  43
HETATM   43  O   UNK     0       8.664  -5.788  19.360  0.00  0.00    -0.776 OA
HETATM   44  H   UNK     0       8.898  -5.619  20.331  0.00  0.00     0.167 HD
ENDBRANCH  41  43
ENDBRANCH  40  41
ENDBRANCH  39  40
ENDBRANCH  27  39
BRANCH  11  45
HETATM   45  C   UNK     0       0.155  -6.510  11.884  0.00  0.00     0.051 C 
BRANCH  45  46
HETATM   46  C   UNK     0      -0.825  -6.971  12.899  0.00  0.00     0.114 C 
BRANCH  46  47
HETATM   47  C   UNK     0      -1.588  -5.773  13.353  0.00  0.00     0.139 C 
HETATM   48  O   UNK     0      -1.153  -5.121  14.312  0.00  0.00    -0.650 OA
BRANCH  47  49
HETATM   49  O   UNK     0      -2.749  -5.399  12.723  0.00  0.00    -0.776 OA
HETATM   50  H   UNK     0      -3.298  -4.588  13.029  0.00  0.00     0.167 HD
ENDBRANCH  47  49
ENDBRANCH  46  47
ENDBRANCH  45  46
ENDBRANCH  11  45
BRANCH  18  51
HETATM   51  C   UNK     0       3.869  -2.771  16.465  0.00  0.00     0.051 C 
BRANCH  51  52
HETATM   52  C   UNK     0       4.768  -1.564  16.242  0.00  0.00     0.114 C 
BRANCH  52  53
HETATM   53  C   UNK     0       4.022  -0.295  16.352  0.00  0.00     0.139 C 
HETATM   54  O   UNK     0       2.806  -0.309  16.602  0.00  0.00    -0.650 OA
BRANCH  53  55
HETATM   55  O   UNK     0       4.679   0.897  16.174  0.00  0.00    -0.776 OA
HETATM   56  H   UNK     0       5.204   1.161  15.374  0.00  0.00     0.167 HD
ENDBRANCH  53  55
ENDBRANCH  52  53
ENDBRANCH  51  52
ENDBRANCH  18  51
TORSDOF 16
ENDMDL
MODEL 5
REMARK VINA RESULT:     -10.2     30.249     33.616
REMARK  16 active torsions:
REMARK  status: ('A' for Active; 'I' for Inactive)
REMARK    1  A    between atoms: C_6  and  C_7 
REMARK    2  A    between atoms: C_7  and  C_8 
REMARK    3  A    between atoms: C_8  and  C_9 
REMARK    4  A    between atoms: C_9  and  O_11 
REMARK    5  A    between atoms: C_16  and  C_17 
REMARK    6  A    between atoms: C_17  and  C_18 
REMARK    7  A    between atoms: C_18  and  C_19 
REMARK    8  A    between atoms: C_19  and  O_21 
REMARK    9  A    between atoms: C_28  and  C_29 
REMARK   10  A    between atoms: C_29  and  C_30 
REMARK   11  A    between atoms: C_30  and  C_31 
REMARK   12  A    between atoms: C_31  and  O_33 
REMARK   13  A    between atoms: C_42  and  C_43 
REMARK   14  A    between atoms: C_43  and  C_44 
REMARK   15  A    between atoms: C_44  and  C_45 
REMARK   16  A    between atoms: C_45  and  O_47 
ROOT
HETATM    1  C   UNK     0      21.006  18.436  -3.237  0.00  0.00     0.051 C 
HETATM    2  C   UNK     0      19.542  18.594  -3.593  0.00  0.00    -0.031 A 
HETATM    3  C   UNK     0      18.876  18.241  -4.757  0.00  0.00     0.021 A 
HETATM    4  N   UNK     0      17.575  18.599  -4.646  0.00  0.00    -0.361 N 
HETATM    5  C   UNK     0      17.394  19.163  -3.434  0.00  0.00     0.022 A 
HETATM    6  C   UNK     0      18.605  19.179  -2.750  0.00  0.00    -0.027 A 
HETATM    7  C   UNK     0      16.133  19.640  -2.784  0.00  0.00     0.115 C 
HETATM    8  C   UNK     0      14.910  18.752  -2.936  0.00  0.00     0.021 A 
HETATM    9  N   UNK     0      14.849  17.412  -2.966  0.00  0.00    -0.361 N 
HETATM   10  C   UNK     0      13.570  17.057  -3.210  0.00  0.00     0.022 A 
HETATM   11  C   UNK     0      12.784  18.199  -3.332  0.00  0.00    -0.027 A 
HETATM   12  C   UNK     0      13.623  19.271  -3.160  0.00  0.00    -0.031 A 
HETATM   13  C   UNK     0      13.204  20.724  -3.203  0.00  0.00     0.051 C 
HETATM   14  C   UNK     0      13.048  15.634  -3.392  0.00  0.00     0.115 C 
HETATM   15  C   UNK     0      13.674  14.893  -4.563  0.00  0.00     0.021 A 
HETATM   16  N   UNK     0      14.978  14.630  -4.766  0.00  0.00    -0.361 N 
HETATM   17  C   UNK     0      15.125  14.022  -5.945  0.00  0.00     0.022 A 
HETATM   18  C   UNK     0      13.854  13.874  -6.534  0.00  0.00    -0.027 A 
HETATM   19  C   UNK     0      12.953  14.422  -5.658  0.00  0.00    -0.031 A 
HETATM   20  C   UNK     0      11.454  14.440  -5.890  0.00  0.00     0.051 C 
HETATM   21  C   UNK     0      16.381  13.586  -6.664  0.00  0.00     0.115 C 
HETATM   22  C   UNK     0      17.617  14.436  -6.487  0.00  0.00     0.022 A 
HETATM   23  N   UNK     0      17.708  15.772  -6.449  0.00  0.00    -0.361 N 
HETATM   24  C   UNK     0      18.975  16.102  -6.127  0.00  0.00     0.021 A 
HETATM   25  C   UNK     0      19.721  14.950  -5.964  0.00  0.00    -0.031 A 
HETATM   26  C   UNK     0      21.194  14.807  -5.641  0.00  0.00     0.051 C 
HETATM   27  C   UNK     0      18.874  13.871  -6.189  0.00  0.00    -0.027 A 
HETATM   28  C   UNK     0      19.539  17.489  -5.876  0.00  0.00     0.115 C 
HETATM   29  H   UNK     0      16.801  18.485  -5.440  0.00  0.00     0.165 HD
HETATM   30  H   UNK     0      15.697  16.713  -2.766  0.00  0.00     0.165 HD
HETATM   31  H   UNK     0      15.809  14.834  -4.041  0.00  0.00     0.165 HD
HETATM   32  H   UNK     0      16.887  16.496  -6.691  0.00  0.00     0.165 HD
ENDROOT
BRANCH   6  33
HETATM   33  C   UNK     0      18.937  19.703  -1.376  0.00  0.00     0.051 C 
BRANCH  33  34
HETATM   34  C   UNK     0      18.682  18.649  -0.325  0.00  0.00     0.114 C 
BRANCH  34  35
HETATM   35  C   UNK     0      19.977  18.383   0.364  0.00  0.00     0.139 C 
HETATM   36  O   UNK     0      20.950  19.180   0.221  0.00  0.00    -0.650 OA
BRANCH  35  37
HETATM   37  O   UNK     0      20.179  17.277   1.180  0.00  0.00    -0.776 OA
HETATM   38  H   UNK     0      20.397  16.368   0.804  0.00  0.00     0.167 HD
ENDBRANCH  35  37
ENDBRANCH  34  35
ENDBRANCH  33  34
ENDBRANCH   6  33
BRANCH  27  39
HETATM   39  C   UNK     0      19.340  12.458  -6.173  0.00  0.00     0.051 C 
BRANCH  39  40
HETATM   40  C   UNK     0      19.643  11.812  -7.449  0.00  0.00     0.114 C 
BRANCH  40  41
HETATM   41  C   UNK     0      20.903  12.008  -8.132  0.00  0.00     0.139 C 
HETATM   42  O   UNK     0      21.998  12.016  -7.554  0.00  0.00    -0.650 OA
BRANCH  41  43
HETATM   43  O   UNK     0      20.902  12.203  -9.542  0.00  0.00    -0.776 OA
HETATM   44  H   UNK     0      21.810  12.103  -9.979  0.00  0.00     0.167 HD
ENDBRANCH  41  43
ENDBRANCH  40  41
ENDBRANCH  39  40
ENDBRANCH  27  39
BRANCH  11  45
HETATM   45  C   UNK     0      11.306  18.302  -3.595  0.00  0.00     0.051 C 
BRANCH  45  46
HETATM   46  C   UNK     0      10.487  18.530  -2.377  0.00  0.00     0.114 C 
BRANCH  46  47
HETATM   47  C   UNK     0       9.351  17.566  -2.422  0.00  0.00     0.139 C 
HETATM   48  O   UNK     0       9.023  17.087  -3.517  0.00  0.00    -0.650 OA
BRANCH  47  49
HETATM   49  O   UNK     0       8.679  17.217  -1.277  0.00  0.00    -0.776 OA
HETATM   50  H   UNK     0       9.160  16.814  -0.465  0.00  0.00     0.167 HD
ENDBRANCH  47  49
ENDBRANCH  46  47
ENDBRANCH  45  46
ENDBRANCH  11  45
BRANCH  18  51
HETATM   51  C   UNK     0      13.513  13.225  -7.851  0.00  0.00     0.051 C 
BRANCH  51  52
HETATM   52  C   UNK     0      13.274  11.753  -7.552  0.00  0.00     0.114 C 
BRANCH  52  53
HETATM   53  C   UNK     0      14.189  10.882  -8.314  0.00  0.00     0.139 C 
HETATM   54  O   UNK     0      15.014  11.380  -9.097  0.00  0.00    -0.650 OA
BRANCH  53  55
HETATM   55  O   UNK     0      14.121   9.519  -8.154  0.00  0.00    -0.776 OA
HETATM   56  H   UNK     0      13.928   8.856  -8.867  0.00  0.00     0.167 HD
ENDBRANCH  53  55
ENDBRANCH  52  53
ENDBRANCH  51  52
ENDBRANCH  18  51
TORSDOF 16
ENDMDL
MODEL 6
REMARK VINA RESULT:     -10.1      2.605      7.119
REMARK  16 active torsions:
REMARK  status: ('A' for Active; 'I' for Inactive)
REMARK    1  A    between atoms: C_6  and  C_7 
REMARK    2  A    between atoms: C_7  and  C_8 
REMARK    3  A    between atoms: C_8  and  C_9 
REMARK    4  A    between atoms: C_9  and  O_11 
REMARK    5  A    between atoms: C_16  and  C_17 
REMARK    6  A    between atoms: C_17  and  C_18 
REMARK    7  A    between atoms: C_18  and  C_19 
REMARK    8  A    between atoms: C_19  and  O_21 
REMARK    9  A    between atoms: C_28  and  C_29 
REMARK   10  A    between atoms: C_29  and  C_30 
REMARK   11  A    between atoms: C_30  and  C_31 
REMARK   12  A    between atoms: C_31  and  O_33 
REMARK   13  A    between atoms: C_42  and  C_43 
REMARK   14  A    between atoms: C_43  and  C_44 
REMARK   15  A    between atoms: C_44  and  C_45 
REMARK   16  A    between atoms: C_45  and  O_47 
ROOT
HETATM    1  C   UNK     0       9.493 -12.419  13.392  0.00  0.00     0.051 C 
HETATM    2  C   UNK     0       8.133 -11.771  13.556  0.00  0.00    -0.031 A 
HETATM    3  C   UNK     0       7.609 -11.086  14.641  0.00  0.00     0.021 A 
HETATM    4  N   UNK     0       6.342 -10.706  14.353  0.00  0.00    -0.361 N 
HETATM    5  C   UNK     0       6.049 -11.127  13.106  0.00  0.00     0.022 A 
HETATM    6  C   UNK     0       7.146 -11.799  12.578  0.00  0.00    -0.027 A 
HETATM    7  C   UNK     0       4.821 -10.887  12.283  0.00  0.00     0.115 C 
HETATM    8  C   UNK     0       4.241  -9.484  12.319  0.00  0.00     0.021 A 
HETATM    9  N   UNK     0       4.890  -8.312  12.398  0.00  0.00    -0.361 N 
HETATM   10  C   UNK     0       3.971  -7.329  12.496  0.00  0.00     0.022 A 
HETATM   11  C   UNK     0       2.694  -7.882  12.469  0.00  0.00    -0.027 A 
HETATM   12  C   UNK     0       2.857  -9.239  12.358  0.00  0.00    -0.031 A 
HETATM   13  C   UNK     0       1.735 -10.251  12.287  0.00  0.00     0.051 C 
HETATM   14  C   UNK     0       4.258  -5.840  12.671  0.00  0.00     0.115 C 
HETATM   15  C   UNK     0       5.023  -5.506  13.941  0.00  0.00     0.021 A 
HETATM   16  N   UNK     0       6.232  -5.964  14.317  0.00  0.00    -0.361 N 
HETATM   17  C   UNK     0       6.523  -5.490  15.530  0.00  0.00     0.022 A 
HETATM   18  C   UNK     0       5.457  -4.676  15.962  0.00  0.00    -0.027 A 
HETATM   19  C   UNK     0       4.524  -4.693  14.958  0.00  0.00    -0.031 A 
HETATM   20  C   UNK     0       3.224  -3.911  14.999  0.00  0.00     0.051 C 
HETATM   21  C   UNK     0       7.716  -5.760  16.419  0.00  0.00     0.115 C 
HETATM   22  C   UNK     0       8.331  -7.139  16.361  0.00  0.00     0.022 A 
HETATM   23  N   UNK     0       7.709  -8.322  16.277  0.00  0.00    -0.361 N 
HETATM   24  C   UNK     0       8.642  -9.279  16.103  0.00  0.00     0.021 A 
HETATM   25  C   UNK     0       9.896  -8.700  16.083  0.00  0.00    -0.031 A 
HETATM   26  C   UNK     0      11.251  -9.364  15.953  0.00  0.00     0.051 C 
HETATM   27  C   UNK     0       9.723  -7.330  16.247  0.00  0.00    -0.027 A 
HETATM   28  C   UNK     0       8.418 -10.763  15.865  0.00  0.00     0.115 C 
HETATM   29  H   UNK     0       5.649 -10.179  15.049  0.00  0.00     0.165 HD
HETATM   30  H   UNK     0       5.997  -8.171  12.335  0.00  0.00     0.165 HD
HETATM   31  H   UNK     0       6.916  -6.597  13.693  0.00  0.00     0.165 HD
HETATM   32  H   UNK     0       6.607  -8.497  16.385  0.00  0.00     0.165 HD
ENDROOT
BRANCH   6  33
HETATM   33  C   UNK     0       7.326 -12.460  11.235  0.00  0.00     0.051 C 
BRANCH  33  34
HETATM   34  C   UNK     0       8.133 -11.581  10.309  0.00  0.00     0.114 C 
BRANCH  34  35
HETATM   35  C   UNK     0       9.346 -12.349   9.909  0.00  0.00     0.139 C 
HETATM   36  O   UNK     0      10.386 -11.741   9.520  0.00  0.00    -0.650 OA
BRANCH  35  37
HETATM   37  O   UNK     0       9.399 -13.737   9.942  0.00  0.00    -0.776 OA
HETATM   38  H   UNK     0       9.136 -14.262  10.760  0.00  0.00     0.167 HD
ENDBRANCH  35  37
ENDBRANCH  34  35
ENDBRANCH  33  34
ENDBRANCH   6  33
BRANCH  27  39
HETATM   39  C   UNK     0      10.860  -6.376  16.349  0.00  0.00     0.051 C 
BRANCH  39  40
HETATM   40  C   UNK     0      11.368  -5.768  15.119  0.00  0.00     0.114 C 
BRANCH  40  41
HETATM   41  C   UNK     0      11.040  -4.413  14.737  0.00  0.00     0.139 C 
HETATM   42  O   UNK     0      10.385  -3.641  15.450  0.00  0.00    -0.650 OA
BRANCH  41  43
HETATM   43  O   UNK     0      11.485  -3.923  13.476  0.00  0.00    -0.776 OA
HETATM   44  H   UNK     0      12.018  -3.063  13.525  0.00  0.00     0.167 HD
ENDBRANCH  41  43
ENDBRANCH  40  41
ENDBRANCH  39  40
ENDBRANCH  27  39
BRANCH  11  45
HETATM   45  C   UNK     0       1.363  -7.182  12.541  0.00  0.00     0.051 C 
BRANCH  45  46
HETATM   46  C   UNK     0       1.267  -5.972  11.686  0.00  0.00     0.114 C 
BRANCH  46  47
HETATM   47  C   UNK     0       0.531  -4.936  12.467  0.00  0.00     0.139 C 
HETATM   48  O   UNK     0       0.852  -3.748  12.324  0.00  0.00    -0.650 OA
BRANCH  47  49
HETATM   49  O   UNK     0      -0.479  -5.290  13.325  0.00  0.00    -0.776 OA
HETATM   50  H   UNK     0      -1.468  -5.225  13.059  0.00  0.00     0.167 HD
ENDBRANCH  47  49
ENDBRANCH  46  47
ENDBRANCH  45  46
ENDBRANCH  11  45
BRANCH  18  51
HETATM   51  C   UNK     0       5.343  -3.907  17.253  0.00  0.00     0.051 C 
BRANCH  51  52
HETATM   52  C   UNK     0       6.356  -2.775  17.165  0.00  0.00     0.114 C 
BRANCH  52  53
HETATM   53  C   UNK     0       5.704  -1.451  17.186  0.00  0.00     0.139 C 
HETATM   54  O   UNK     0       6.376  -0.430  17.401  0.00  0.00    -0.650 OA
BRANCH  53  55
HETATM   55  O   UNK     0       4.350  -1.357  16.970  0.00  0.00    -0.776 OA
HETATM   56  H   UNK     0       3.779  -2.042  16.534  0.00  0.00     0.167 HD
ENDBRANCH  53  55
ENDBRANCH  52  53
ENDBRANCH  51  52
ENDBRANCH  18  51
TORSDOF 16
ENDMDL
MODEL 7
REMARK VINA RESULT:     -10.0     30.714     33.829
REMARK  16 active torsions:
REMARK  status: ('A' for Active; 'I' for Inactive)
REMARK    1  A    between atoms: C_6  and  C_7 
REMARK    2  A    between atoms: C_7  and  C_8 
REMARK    3  A    between atoms: C_8  and  C_9 
REMARK    4  A    between atoms: C_9  and  O_11 
REMARK    5  A    between atoms: C_16  and  C_17 
REMARK    6  A    between atoms: C_17  and  C_18 
REMARK    7  A    between atoms: C_18  and  C_19 
REMARK    8  A    between atoms: C_19  and  O_21 
REMARK    9  A    between atoms: C_28  and  C_29 
REMARK   10  A    between atoms: C_29  and  C_30 
REMARK   11  A    between atoms: C_30  and  C_31 
REMARK   12  A    between atoms: C_31  and  O_33 
REMARK   13  A    between atoms: C_42  and  C_43 
REMARK   14  A    between atoms: C_43  and  C_44 
REMARK   15  A    between atoms: C_44  and  C_45 
REMARK   16  A    between atoms: C_45  and  O_47 
ROOT
HETATM    1  C   UNK     0      11.260  18.205  -3.924  0.00  0.00     0.051 C 
HETATM    2  C   UNK     0      12.719  18.128  -3.524  0.00  0.00    -0.031 A 
HETATM    3  C   UNK     0      13.501  17.014  -3.261  0.00  0.00     0.021 A 
HETATM    4  N   UNK     0      14.744  17.421  -2.909  0.00  0.00    -0.361 N 
HETATM    5  C   UNK     0      14.773  18.769  -2.951  0.00  0.00     0.022 A 
HETATM    6  C   UNK     0      13.522  19.244  -3.330  0.00  0.00    -0.027 A 
HETATM    7  C   UNK     0      15.924  19.703  -2.742  0.00  0.00     0.115 C 
HETATM    8  C   UNK     0      17.245  19.310  -3.379  0.00  0.00     0.021 A 
HETATM    9  N   UNK     0      17.457  18.688  -4.550  0.00  0.00    -0.361 N 
HETATM   10  C   UNK     0      18.782  18.458  -4.668  0.00  0.00     0.022 A 
HETATM   11  C   UNK     0      19.443  18.953  -3.548  0.00  0.00    -0.027 A 
HETATM   12  C   UNK     0      18.481  19.491  -2.732  0.00  0.00    -0.031 A 
HETATM   13  C   UNK     0      18.737  20.152  -1.396  0.00  0.00     0.051 C 
HETATM   14  C   UNK     0      19.469  17.718  -5.812  0.00  0.00     0.115 C 
HETATM   15  C   UNK     0      19.015  16.277  -5.974  0.00  0.00     0.021 A 
HETATM   16  N   UNK     0      17.766  15.830  -6.201  0.00  0.00    -0.361 N 
HETATM   17  C   UNK     0      17.772  14.495  -6.210  0.00  0.00     0.022 A 
HETATM   18  C   UNK     0      19.091  14.051  -5.988  0.00  0.00    -0.027 A 
HETATM   19  C   UNK     0      19.860  15.176  -5.843  0.00  0.00    -0.031 A 
HETATM   20  C   UNK     0      21.361  15.150  -5.622  0.00  0.00     0.051 C 
HETATM   21  C   UNK     0      16.627  13.518  -6.350  0.00  0.00     0.115 C 
HETATM   22  C   UNK     0      15.294  13.916  -5.760  0.00  0.00     0.022 A 
HETATM   23  N   UNK     0      15.054  14.539  -4.599  0.00  0.00    -0.361 N 
HETATM   24  C   UNK     0      13.738  14.828  -4.537  0.00  0.00     0.021 A 
HETATM   25  C   UNK     0      13.115  14.370  -5.682  0.00  0.00    -0.031 A 
HETATM   26  C   UNK     0      11.648  14.424  -6.054  0.00  0.00     0.051 C 
HETATM   27  C   UNK     0      14.090  13.783  -6.480  0.00  0.00    -0.027 A 
HETATM   28  C   UNK     0      13.007  15.609  -3.459  0.00  0.00     0.115 C 
HETATM   29  H   UNK     0      15.580  16.754  -2.595  0.00  0.00     0.165 HD
HETATM   30  H   UNK     0      16.679  18.455  -5.317  0.00  0.00     0.165 HD
HETATM   31  H   UNK     0      16.868  16.469  -6.407  0.00  0.00     0.165 HD
HETATM   32  H   UNK     0      15.805  14.743  -3.791  0.00  0.00     0.165 HD
ENDROOT
BRANCH   6  33
HETATM   33  C   UNK     0      13.037  20.659  -3.516  0.00  0.00     0.051 C 
BRANCH  33  34
HETATM   34  C   UNK     0      12.781  20.950  -4.976  0.00  0.00     0.114 C 
BRANCH  34  35
HETATM   35  C   UNK     0      14.105  20.996  -5.661  0.00  0.00     0.139 C 
HETATM   36  O   UNK     0      14.903  21.953  -5.441  0.00  0.00    -0.650 OA
BRANCH  35  37
HETATM   37  O   UNK     0      14.523  20.014  -6.551  0.00  0.00    -0.776 OA
HETATM   38  H   UNK     0      13.872  19.495  -7.118  0.00  0.00     0.167 HD
ENDBRANCH  35  37
ENDBRANCH  34  35
ENDBRANCH  33  34
ENDBRANCH   6  33
BRANCH  27  39
HETATM   39  C   UNK     0      13.784  13.110  -7.771  0.00  0.00     0.051 C 
BRANCH  39  40
HETATM   40  C   UNK     0      13.886  11.652  -7.835  0.00  0.00     0.114 C 
BRANCH  40  41
HETATM   41  C   UNK     0      14.956  10.985  -8.542  0.00  0.00     0.139 C 
HETATM   42  O   UNK     0      15.842  10.328  -7.979  0.00  0.00    -0.650 OA
BRANCH  41  43
HETATM   43  O   UNK     0      15.010  11.078  -9.962  0.00  0.00    -0.776 OA
HETATM   44  H   UNK     0      14.280  11.647 -10.373  0.00  0.00     0.167 HD
ENDBRANCH  41  43
ENDBRANCH  40  41
ENDBRANCH  39  40
ENDBRANCH  27  39
BRANCH  11  45
HETATM   45  C   UNK     0      20.916  18.935  -3.238  0.00  0.00     0.051 C 
BRANCH  45  46
HETATM   46  C   UNK     0      21.363  17.730  -2.493  0.00  0.00     0.114 C 
BRANCH  46  47
HETATM   47  C   UNK     0      21.987  18.203  -1.224  0.00  0.00     0.139 C 
HETATM   48  O   UNK     0      22.126  19.422  -1.050  0.00  0.00    -0.650 OA
BRANCH  47  49
HETATM   49  O   UNK     0      22.400  17.310  -0.268  0.00  0.00    -0.776 OA
HETATM   50  H   UNK     0      22.740  17.613   0.652  0.00  0.00     0.167 HD
ENDBRANCH  47  49
ENDBRANCH  46  47
ENDBRANCH  45  46
ENDBRANCH  11  45
BRANCH  18  51
HETATM   51  C   UNK     0      19.594  12.631  -5.937  0.00  0.00     0.051 C 
BRANCH  51  52
HETATM   52  C   UNK     0      19.369  12.050  -7.325  0.00  0.00     0.114 C 
BRANCH  52  53
HETATM   53  C   UNK     0      20.312  12.607  -8.314  0.00  0.00     0.139 C 
HETATM   54  O   UNK     0      21.486  12.204  -8.349  0.00  0.00    -0.650 OA
BRANCH  53  55
HETATM   55  O   UNK     0      19.885  13.574  -9.191  0.00  0.00    -0.776 OA
HETATM   56  H   UNK     0      20.462  14.114  -9.792  0.00  0.00     0.167 HD
ENDBRANCH  53  55
ENDBRANCH  52  53
ENDBRANCH  51  52
ENDBRANCH  18  51
TORSDOF 16
ENDMDL
MODEL 8
REMARK VINA RESULT:     -10.0      4.978     10.171
REMARK  16 active torsions:
REMARK  status: ('A' for Active; 'I' for Inactive)
REMARK    1  A    between atoms: C_6  and  C_7 
REMARK    2  A    between atoms: C_7  and  C_8 
REMARK    3  A    between atoms: C_8  and  C_9 
REMARK    4  A    between atoms: C_9  and  O_11 
REMARK    5  A    between atoms: C_16  and  C_17 
REMARK    6  A    between atoms: C_17  and  C_18 
REMARK    7  A    between atoms: C_18  and  C_19 
REMARK    8  A    between atoms: C_19  and  O_21 
REMARK    9  A    between atoms: C_28  and  C_29 
REMARK   10  A    between atoms: C_29  and  C_30 
REMARK   11  A    between atoms: C_30  and  C_31 
REMARK   12  A    between atoms: C_31  and  O_33 
REMARK   13  A    between atoms: C_42  and  C_43 
REMARK   14  A    between atoms: C_43  and  C_44 
REMARK   15  A    between atoms: C_44  and  C_45 
REMARK   16  A    between atoms: C_45  and  O_47 
ROOT
HETATM    1  C   UNK     0       7.438 -11.746  14.122  0.00  0.00     0.051 C 
HETATM    2  C   UNK     0       8.142 -10.659  14.907  0.00  0.00    -0.031 A 
HETATM    3  C   UNK     0       9.303 -10.730  15.662  0.00  0.00     0.021 A 
HETATM    4  N   UNK     0       9.544  -9.518  16.215  0.00  0.00    -0.361 N 
HETATM    5  C   UNK     0       8.568  -8.673  15.822  0.00  0.00     0.022 A 
HETATM    6  C   UNK     0       7.672  -9.356  15.005  0.00  0.00    -0.027 A 
HETATM    7  C   UNK     0       8.420  -7.206  16.076  0.00  0.00     0.115 C 
HETATM    8  C   UNK     0       9.676  -6.362  15.950  0.00  0.00     0.021 A 
HETATM    9  N   UNK     0      10.698  -6.506  15.093  0.00  0.00    -0.361 N 
HETATM   10  C   UNK     0      11.639  -5.589  15.403  0.00  0.00     0.022 A 
HETATM   11  C   UNK     0      11.207  -4.827  16.485  0.00  0.00    -0.027 A 
HETATM   12  C   UNK     0       9.971  -5.309  16.835  0.00  0.00    -0.031 A 
HETATM   13  C   UNK     0       9.113  -4.779  17.961  0.00  0.00     0.051 C 
HETATM   14  C   UNK     0      12.999  -5.429  14.730  0.00  0.00     0.115 C 
HETATM   15  C   UNK     0      13.890  -6.656  14.845  0.00  0.00     0.021 A 
HETATM   16  N   UNK     0      13.627  -7.905  14.417  0.00  0.00    -0.361 N 
HETATM   17  C   UNK     0      14.632  -8.709  14.769  0.00  0.00     0.022 A 
HETATM   18  C   UNK     0      15.601  -7.946  15.450  0.00  0.00    -0.027 A 
HETATM   19  C   UNK     0      15.125  -6.662  15.490  0.00  0.00    -0.031 A 
HETATM   20  C   UNK     0      15.881  -5.500  16.108  0.00  0.00     0.051 C 
HETATM   21  C   UNK     0      14.790 -10.203  14.591  0.00  0.00     0.115 C 
HETATM   22  C   UNK     0      13.542 -11.050  14.669  0.00  0.00     0.022 A 
HETATM   23  N   UNK     0      12.506 -10.927  15.510  0.00  0.00    -0.361 N 
HETATM   24  C   UNK     0      11.549 -11.798  15.133  0.00  0.00     0.021 A 
HETATM   25  C   UNK     0      11.982 -12.506  14.029  0.00  0.00    -0.031 A 
HETATM   26  C   UNK     0      11.281 -13.616  13.273  0.00  0.00     0.051 C 
HETATM   27  C   UNK     0      13.255 -12.045  13.713  0.00  0.00    -0.027 A 
HETATM   28  C   UNK     0      10.159 -11.963  15.722  0.00  0.00     0.115 C 
HETATM   29  H   UNK     0      10.381  -9.277  16.911  0.00  0.00     0.165 HD
HETATM   30  H   UNK     0      10.737  -7.221  14.235  0.00  0.00     0.165 HD
HETATM   31  H   UNK     0      12.736  -8.217  13.812  0.00  0.00     0.165 HD
HETATM   32  H   UNK     0      12.459 -10.254  16.405  0.00  0.00     0.165 HD
ENDROOT
BRANCH   6  33
HETATM   33  C   UNK     0       6.419  -8.870  14.322  0.00  0.00     0.051 C 
BRANCH  33  34
HETATM   34  C   UNK     0       5.292  -8.721  15.315  0.00  0.00     0.114 C 
BRANCH  34  35
HETATM   35  C   UNK     0       4.273  -9.761  14.994  0.00  0.00     0.139 C 
HETATM   36  O   UNK     0       4.132 -10.169  13.805  0.00  0.00    -0.650 OA
BRANCH  35  37
HETATM   37  O   UNK     0       3.447 -10.324  15.959  0.00  0.00    -0.776 OA
HETATM   38  H   UNK     0       3.816 -10.774  16.782  0.00  0.00     0.167 HD
ENDBRANCH  35  37
ENDBRANCH  34  35
ENDBRANCH  33  34
ENDBRANCH   6  33
BRANCH  27  39
HETATM   39  C   UNK     0      14.078 -12.624  12.617  0.00  0.00     0.051 C 
BRANCH  39  40
HETATM   40  C   UNK     0      14.130 -11.915  11.339  0.00  0.00     0.114 C 
BRANCH  40  41
HETATM   41  C   UNK     0      13.950 -12.593  10.074  0.00  0.00     0.139 C 
HETATM   42  O   UNK     0      14.277 -12.104   8.984  0.00  0.00    -0.650 OA
BRANCH  41  43
HETATM   43  O   UNK     0      13.366 -13.891  10.062  0.00  0.00    -0.776 OA
HETATM   44  H   UNK     0      13.057 -14.204   9.150  0.00  0.00     0.167 HD
ENDBRANCH  41  43
ENDBRANCH  40  41
ENDBRANCH  39  40
ENDBRANCH  27  39
BRANCH  11  45
HETATM   45  C   UNK     0      11.908  -3.688  17.175  0.00  0.00     0.051 C 
BRANCH  45  46
HETATM   46  C   UNK     0      12.152  -2.510  16.304  0.00  0.00     0.114 C 
BRANCH  46  47
HETATM   47  C   UNK     0      13.562  -2.079  16.529  0.00  0.00     0.139 C 
HETATM   48  O   UNK     0      14.044  -1.216  15.782  0.00  0.00    -0.650 OA
BRANCH  47  49
HETATM   49  O   UNK     0      14.312  -2.627  17.540  0.00  0.00    -0.776 OA
HETATM   50  H   UNK     0      15.148  -2.162  17.911  0.00  0.00     0.167 HD
ENDBRANCH  47  49
ENDBRANCH  46  47
ENDBRANCH  45  46
ENDBRANCH  11  45
BRANCH  18  51
HETATM   51  C   UNK     0      16.918  -8.412  16.014  0.00  0.00     0.051 C 
BRANCH  51  52
HETATM   52  C   UNK     0      16.582  -9.376  17.142  0.00  0.00     0.114 C 
BRANCH  52  53
HETATM   53  C   UNK     0      15.709  -8.754  18.156  0.00  0.00     0.139 C 
HETATM   54  O   UNK     0      14.541  -9.149  18.297  0.00  0.00    -0.650 OA
BRANCH  53  55
HETATM   55  O   UNK     0      16.196  -7.734  18.938  0.00  0.00    -0.776 OA
HETATM   56  H   UNK     0      16.335  -6.794  18.651  0.00  0.00     0.167 HD
ENDBRANCH  53  55
ENDBRANCH  52  53
ENDBRANCH  51  52
ENDBRANCH  18  51
TORSDOF 16
ENDMDL
MODEL 9
REMARK VINA RESULT:     -10.0     28.410     31.671
REMARK  16 active torsions:
REMARK  status: ('A' for Active; 'I' for Inactive)
REMARK    1  A    between atoms: C_6  and  C_7 
REMARK    2  A    between atoms: C_7  and  C_8 
REMARK    3  A    between atoms: C_8  and  C_9 
REMARK    4  A    between atoms: C_9  and  O_11 
REMARK    5  A    between atoms: C_16  and  C_17 
REMARK    6  A    between atoms: C_17  and  C_18 
REMARK    7  A    between atoms: C_18  and  C_19 
REMARK    8  A    between atoms: C_19  and  O_21 
REMARK    9  A    between atoms: C_28  and  C_29 
REMARK   10  A    between atoms: C_29  and  C_30 
REMARK   11  A    between atoms: C_30  and  C_31 
REMARK   12  A    between atoms: C_31  and  O_33 
REMARK   13  A    between atoms: C_42  and  C_43 
REMARK   14  A    between atoms: C_43  and  C_44 
REMARK   15  A    between atoms: C_44  and  C_45 
REMARK   16  A    between atoms: C_45  and  O_47 
ROOT
HETATM    1  C   UNK     0      17.470  16.931  -4.586  0.00  0.00     0.051 C 
HETATM    2  C   UNK     0      16.278  15.996  -4.594  0.00  0.00    -0.031 A 
HETATM    3  C   UNK     0      15.278  15.838  -3.648  0.00  0.00     0.021 A 
HETATM    4  N   UNK     0      14.433  14.862  -4.058  0.00  0.00    -0.361 N 
HETATM    5  C   UNK     0      14.868  14.401  -5.249  0.00  0.00     0.022 A 
HETATM    6  C   UNK     0      16.022  15.087  -5.612  0.00  0.00    -0.027 A 
HETATM    7  C   UNK     0      14.245  13.396  -6.166  0.00  0.00     0.115 C 
HETATM    8  C   UNK     0      12.742  13.491  -6.361  0.00  0.00     0.021 A 
HETATM    9  N   UNK     0      11.973  14.589  -6.411  0.00  0.00    -0.361 N 
HETATM   10  C   UNK     0      10.685  14.196  -6.506  0.00  0.00     0.022 A 
HETATM   11  C   UNK     0      10.624  12.806  -6.527  0.00  0.00    -0.027 A 
HETATM   12  C   UNK     0      11.916  12.355  -6.437  0.00  0.00    -0.031 A 
HETATM   13  C   UNK     0      12.337  10.902  -6.429  0.00  0.00     0.051 C 
HETATM   14  C   UNK     0       9.463  15.109  -6.526  0.00  0.00     0.115 C 
HETATM   15  C   UNK     0       9.307  15.956  -5.273  0.00  0.00     0.021 A 
HETATM   16  N   UNK     0      10.182  16.845  -4.768  0.00  0.00    -0.361 N 
HETATM   17  C   UNK     0       9.704  17.328  -3.619  0.00  0.00     0.022 A 
HETATM   18  C   UNK     0       8.452  16.732  -3.368  0.00  0.00    -0.027 A 
HETATM   19  C   UNK     0       8.214  15.876  -4.412  0.00  0.00    -0.031 A 
HETATM   20  C   UNK     0       6.948  15.052  -4.555  0.00  0.00     0.051 C 
HETATM   21  C   UNK     0      10.329  18.290  -2.635  0.00  0.00     0.115 C 
HETATM   22  C   UNK     0      11.829  18.237  -2.462  0.00  0.00     0.022 A 
HETATM   23  N   UNK     0      12.621  17.158  -2.414  0.00  0.00    -0.361 N 
HETATM   24  C   UNK     0      13.903  17.574  -2.398  0.00  0.00     0.021 A 
HETATM   25  C   UNK     0      13.937  18.955  -2.427  0.00  0.00    -0.031 A 
HETATM   26  C   UNK     0      15.136  19.879  -2.384  0.00  0.00     0.051 C 
HETATM   27  C   UNK     0      12.622  19.402  -2.468  0.00  0.00    -0.027 A 
HETATM   28  C   UNK     0      15.158  16.719  -2.437  0.00  0.00     0.115 C 
HETATM   29  H   UNK     0      13.557  14.479  -3.484  0.00  0.00     0.165 HD
HETATM   30  H   UNK     0      12.340  15.645  -6.429  0.00  0.00     0.165 HD
HETATM   31  H   UNK     0      11.136  17.176  -5.256  0.00  0.00     0.165 HD
HETATM   32  H   UNK     0      12.280  16.092  -2.346  0.00  0.00     0.165 HD
ENDROOT
BRANCH   6  33
HETATM   33  C   UNK     0      16.891  14.944  -6.836  0.00  0.00     0.051 C 
BRANCH  33  34
HETATM   34  C   UNK     0      18.116  14.116  -6.530  0.00  0.00     0.114 C 
BRANCH  34  35
HETATM   35  C   UNK     0      17.749  12.685  -6.728  0.00  0.00     0.139 C 
HETATM   36  O   UNK     0      17.811  11.871  -5.760  0.00  0.00    -0.650 OA
BRANCH  35  37
HETATM   37  O   UNK     0      17.329  12.182  -7.953  0.00  0.00    -0.776 OA
HETATM   38  H   UNK     0      17.800  11.415  -8.406  0.00  0.00     0.167 HD
ENDBRANCH  35  37
ENDBRANCH  34  35
ENDBRANCH  33  34
ENDBRANCH   6  33
BRANCH  27  39
HETATM   39  C   UNK     0      12.255  20.844  -2.436  0.00  0.00     0.051 C 
BRANCH  39  40
HETATM   40  C   UNK     0      11.512  21.396  -3.569  0.00  0.00     0.114 C 
BRANCH  40  41
HETATM   41  C   UNK     0      12.165  22.107  -4.646  0.00  0.00     0.139 C 
HETATM   42  O   UNK     0      13.100  21.636  -5.308  0.00  0.00    -0.650 OA
BRANCH  41  43
HETATM   43  O   UNK     0      11.723  23.420  -4.975  0.00  0.00    -0.776 OA
HETATM   44  H   UNK     0      12.333  24.161  -4.652  0.00  0.00     0.167 HD
ENDBRANCH  41  43
ENDBRANCH  40  41
ENDBRANCH  39  40
ENDBRANCH  27  39
BRANCH  11  45
HETATM   45  C   UNK     0       9.413  11.918  -6.631  0.00  0.00     0.051 C 
BRANCH  45  46
HETATM   46  C   UNK     0       8.447  12.077  -5.513  0.00  0.00     0.114 C 
BRANCH  46  47
HETATM   47  C   UNK     0       7.137  11.541  -5.982  0.00  0.00     0.139 C 
HETATM   48  O   UNK     0       6.578  12.095  -6.938  0.00  0.00    -0.650 OA
BRANCH  47  49
HETATM   49  O   UNK     0       6.561  10.458  -5.367  0.00  0.00    -0.776 OA
HETATM   50  H   UNK     0       6.489   9.543  -5.829  0.00  0.00     0.167 HD
ENDBRANCH  47  49
ENDBRANCH  46  47
ENDBRANCH  45  46
ENDBRANCH  11  45
BRANCH  18  51
HETATM   51  C   UNK     0       7.524  16.981  -2.208  0.00  0.00     0.051 C 
BRANCH  51  52
HETATM   52  C   UNK     0       6.551  18.057  -2.664  0.00  0.00     0.114 C 
BRANCH  52  53
HETATM   53  C   UNK     0       6.661  19.280  -1.846  0.00  0.00     0.139 C 
HETATM   54  O   UNK     0       7.392  20.212  -2.217  0.00  0.00    -0.650 OA
BRANCH  53  55
HETATM   55  O   UNK     0       5.955  19.379  -0.672  0.00  0.00    -0.776 OA
HETATM   56  H   UNK     0       4.975  19.256  -0.568  0.00  0.00     0.167 HD
ENDBRANCH  53  55
ENDBRANCH  52  53
ENDBRANCH  51  52
ENDBRANCH  18  51
TORSDOF 16
ENDMDL
MODEL 10
REMARK VINA RESULT:      -9.9      3.280      7.703
REMARK  16 active torsions:
REMARK  status: ('A' for Active; 'I' for Inactive)
REMARK    1  A    between atoms: C_6  and  C_7 
REMARK    2  A    between atoms: C_7  and  C_8 
REMARK    3  A    between atoms: C_8  and  C_9 
REMARK    4  A    between atoms: C_9  and  O_11 
REMARK    5  A    between atoms: C_16  and  C_17 
REMARK    6  A    between atoms: C_17  and  C_18 
REMARK    7  A    between atoms: C_18  and  C_19 
REMARK    8  A    between atoms: C_19  and  O_21 
REMARK    9  A    between atoms: C_28  and  C_29 
REMARK   10  A    between atoms: C_29  and  C_30 
REMARK   11  A    between atoms: C_30  and  C_31 
REMARK   12  A    between atoms: C_31  and  O_33 
REMARK   13  A    between atoms: C_42  and  C_43 
REMARK   14  A    between atoms: C_43  and  C_44 
REMARK   15  A    between atoms: C_44  and  C_45 
REMARK   16  A    between atoms: C_45  and  O_47 
ROOT
HETATM    1  C   UNK     0      13.321 -11.796  14.298  0.00  0.00     0.051 C 
HETATM    2  C   UNK     0      11.921 -11.511  14.800  0.00  0.00    -0.031 A 
HETATM    3  C   UNK     0      11.488 -10.553  15.703  0.00  0.00     0.021 A 
HETATM    4  N   UNK     0      10.151 -10.685  15.879  0.00  0.00    -0.361 N 
HETATM    5  C   UNK     0       9.722 -11.700  15.102  0.00  0.00     0.022 A 
HETATM    6  C   UNK     0      10.804 -12.241  14.415  0.00  0.00    -0.027 A 
HETATM    7  C   UNK     0       8.329 -12.190  14.859  0.00  0.00     0.115 C 
HETATM    8  C   UNK     0       7.258 -11.131  14.665  0.00  0.00     0.021 A 
HETATM    9  N   UNK     0       7.361  -9.939  14.058  0.00  0.00    -0.361 N 
HETATM   10  C   UNK     0       6.186  -9.291  14.203  0.00  0.00     0.022 A 
HETATM   11  C   UNK     0       5.298 -10.091  14.916  0.00  0.00    -0.027 A 
HETATM   12  C   UNK     0       5.967 -11.252  15.210  0.00  0.00    -0.031 A 
HETATM   13  C   UNK     0       5.391 -12.423  15.973  0.00  0.00     0.051 C 
HETATM   14  C   UNK     0       5.871  -7.876  13.724  0.00  0.00     0.115 C 
HETATM   15  C   UNK     0       6.752  -6.805  14.347  0.00  0.00     0.021 A 
HETATM   16  N   UNK     0       8.094  -6.714  14.297  0.00  0.00    -0.361 N 
HETATM   17  C   UNK     0       8.490  -5.670  15.028  0.00  0.00     0.022 A 
HETATM   18  C   UNK     0       7.351  -5.045  15.574  0.00  0.00    -0.027 A 
HETATM   19  C   UNK     0       6.269  -5.765  15.139  0.00  0.00    -0.031 A 
HETATM   20  C   UNK     0       4.831  -5.409  15.469  0.00  0.00     0.051 C 
HETATM   21  C   UNK     0       9.885  -5.183  15.351  0.00  0.00     0.115 C 
HETATM   22  C   UNK     0      10.969  -6.223  15.503  0.00  0.00     0.022 A 
HETATM   23  N   UNK     0      10.894  -7.420  16.100  0.00  0.00    -0.361 N 
HETATM   24  C   UNK     0      12.048  -8.079  15.875  0.00  0.00     0.021 A 
HETATM   25  C   UNK     0      12.892  -7.283  15.125  0.00  0.00    -0.031 A 
HETATM   26  C   UNK     0      14.305  -7.566  14.658  0.00  0.00     0.051 C 
HETATM   27  C   UNK     0      12.224  -6.090  14.874  0.00  0.00    -0.027 A 
HETATM   28  C   UNK     0      12.399  -9.503  16.273  0.00  0.00     0.115 C 
HETATM   29  H   UNK     0       9.527 -10.085  16.582  0.00  0.00     0.165 HD
HETATM   30  H   UNK     0       8.246  -9.572  13.482  0.00  0.00     0.165 HD
HETATM   31  H   UNK     0       8.774  -7.371  13.694  0.00  0.00     0.165 HD
HETATM   32  H   UNK     0      10.040  -7.795  16.722  0.00  0.00     0.165 HD
ENDROOT
BRANCH   6  33
HETATM   33  C   UNK     0      10.856 -13.386  13.435  0.00  0.00     0.051 C 
BRANCH  33  34
HETATM   34  C   UNK     0      10.422 -12.935  12.061  0.00  0.00     0.114 C 
BRANCH  34  35
HETATM   35  C   UNK     0      11.395 -13.495  11.079  0.00  0.00     0.139 C 
HETATM   36  O   UNK     0      12.612 -13.152  11.123  0.00  0.00    -0.650 OA
BRANCH  35  37
HETATM   37  O   UNK     0      11.026 -14.400  10.092  0.00  0.00    -0.776 OA
HETATM   38  H   UNK     0      10.925 -15.385  10.280  0.00  0.00     0.167 HD
ENDBRANCH  35  37
ENDBRANCH  34  35
ENDBRANCH  33  34
ENDBRANCH   6  33
BRANCH  27  39
HETATM   39  C   UNK     0      12.846  -4.949  14.150  0.00  0.00     0.051 C 
BRANCH  39  40
HETATM   40  C   UNK     0      13.558  -3.937  14.929  0.00  0.00     0.114 C 
BRANCH  40  41
HETATM   41  C   UNK     0      13.128  -3.539  16.251  0.00  0.00     0.139 C 
HETATM   42  O   UNK     0      12.285  -2.656  16.459  0.00  0.00    -0.650 OA
BRANCH  41  43
HETATM   43  O   UNK     0      13.695  -4.187  17.386  0.00  0.00    -0.776 OA
HETATM   44  H   UNK     0      14.599  -4.611  17.218  0.00  0.00     0.167 HD
ENDBRANCH  41  43
ENDBRANCH  40  41
ENDBRANCH  39  40
ENDBRANCH  27  39
BRANCH  11  45
HETATM   45  C   UNK     0       3.876  -9.799  15.312  0.00  0.00     0.051 C 
BRANCH  45  46
HETATM   46  C   UNK     0       2.966  -9.549  14.165  0.00  0.00     0.114 C 
BRANCH  46  47
HETATM   47  C   UNK     0       1.775 -10.427  14.347  0.00  0.00     0.139 C 
HETATM   48  O   UNK     0       1.064 -10.673  13.362  0.00  0.00    -0.650 OA
BRANCH  47  49
HETATM   49  O   UNK     0       1.469 -10.951  15.578  0.00  0.00    -0.776 OA
HETATM   50  H   UNK     0       1.061 -10.380  16.327  0.00  0.00     0.167 HD
ENDBRANCH  47  49
ENDBRANCH  46  47
ENDBRANCH  45  46
ENDBRANCH  11  45
BRANCH  18  51
HETATM   51  C   UNK     0       7.296  -3.817  16.444  0.00  0.00     0.051 C 
BRANCH  51  52
HETATM   52  C   UNK     0       7.114  -4.314  17.871  0.00  0.00     0.114 C 
BRANCH  52  53
HETATM   53  C   UNK     0       8.394  -4.732  18.475  0.00  0.00     0.139 C 
HETATM   54  O   UNK     0       9.380  -3.978  18.426  0.00  0.00    -0.650 OA
BRANCH  53  55
HETATM   55  O   UNK     0       8.489  -5.958  19.085  0.00  0.00    -0.776 OA
HETATM   56  H   UNK     0       8.951  -6.758  18.721  0.00  0.00     0.167 HD
ENDBRANCH  53  55
ENDBRANCH  52  53
ENDBRANCH  51  52
ENDBRANCH  18  51
TORSDOF 16
ENDMDL
MODEL 11
REMARK VINA RESULT:      -9.9      1.992      2.420
REMARK  16 active torsions:
REMARK  status: ('A' for Active; 'I' for Inactive)
REMARK    1  A    between atoms: C_6  and  C_7 
REMARK    2  A    between atoms: C_7  and  C_8 
REMARK    3  A    between atoms: C_8  and  C_9 
REMARK    4  A    between atoms: C_9  and  O_11 
REMARK    5  A    between atoms: C_16  and  C_17 
REMARK    6  A    between atoms: C_17  and  C_18 
REMARK    7  A    between atoms: C_18  and  C_19 
REMARK    8  A    between atoms: C_19  and  O_21 
REMARK    9  A    between atoms: C_28  and  C_29 
REMARK   10  A    between atoms: C_29  and  C_30 
REMARK   11  A    between atoms: C_30  and  C_31 
REMARK   12  A    between atoms: C_31  and  O_33 
REMARK   13  A    between atoms: C_42  and  C_43 
REMARK   14  A    between atoms: C_43  and  C_44 
REMARK   15  A    between atoms: C_44  and  C_45 
REMARK   16  A    between atoms: C_45  and  O_47 
ROOT
HETATM    1  C   UNK     0       1.119  -6.957  12.334  0.00  0.00     0.051 C 
HETATM    2  C   UNK     0       2.449  -7.671  12.205  0.00  0.00    -0.031 A 
HETATM    3  C   UNK     0       3.733  -7.150  12.215  0.00  0.00     0.021 A 
HETATM    4  N   UNK     0       4.620  -8.157  12.037  0.00  0.00    -0.361 N 
HETATM    5  C   UNK     0       3.930  -9.311  11.923  0.00  0.00     0.022 A 
HETATM    6  C   UNK     0       2.569  -9.043  12.020  0.00  0.00    -0.027 A 
HETATM    7  C   UNK     0       4.435 -10.715  11.807  0.00  0.00     0.115 C 
HETATM    8  C   UNK     0       5.599 -11.097  12.704  0.00  0.00     0.021 A 
HETATM    9  N   UNK     0       5.853 -10.696  13.959  0.00  0.00    -0.361 N 
HETATM   10  C   UNK     0       7.043 -11.214  14.332  0.00  0.00     0.022 A 
HETATM   11  C   UNK     0       7.564 -11.977  13.292  0.00  0.00    -0.027 A 
HETATM   12  C   UNK     0       6.660 -11.908  12.264  0.00  0.00    -0.031 A 
HETATM   13  C   UNK     0       6.805 -12.594  10.923  0.00  0.00     0.051 C 
HETATM   14  C   UNK     0       7.758 -10.967  15.658  0.00  0.00     0.115 C 
HETATM   15  C   UNK     0       8.103  -9.508  15.909  0.00  0.00     0.021 A 
HETATM   16  N   UNK     0       7.258  -8.462  15.968  0.00  0.00    -0.361 N 
HETATM   17  C   UNK     0       7.960  -7.340  16.136  0.00  0.00     0.022 A 
HETATM   18  C   UNK     0       9.328  -7.671  16.200  0.00  0.00    -0.027 A 
HETATM   19  C   UNK     0       9.404  -9.032  16.058  0.00  0.00    -0.031 A 
HETATM   20  C   UNK     0      10.704  -9.814  16.104  0.00  0.00     0.051 C 
HETATM   21  C   UNK     0       7.496  -5.902  16.192  0.00  0.00     0.115 C 
HETATM   22  C   UNK     0       6.311  -5.518  15.337  0.00  0.00     0.022 A 
HETATM   23  N   UNK     0       6.030  -5.906  14.086  0.00  0.00    -0.361 N 
HETATM   24  C   UNK     0       4.806  -5.442  13.764  0.00  0.00     0.021 A 
HETATM   25  C   UNK     0       4.290  -4.731  14.830  0.00  0.00    -0.031 A 
HETATM   26  C   UNK     0       2.972  -3.991  14.934  0.00  0.00     0.051 C 
HETATM   27  C   UNK     0       5.235  -4.765  15.848  0.00  0.00    -0.027 A 
HETATM   28  C   UNK     0       4.019  -5.701  12.490  0.00  0.00     0.115 C 
HETATM   29  H   UNK     0       5.726  -8.041  11.954  0.00  0.00     0.165 HD
HETATM   30  H   UNK     0       5.172 -10.088  14.603  0.00  0.00     0.165 HD
HETATM   31  H   UNK     0       6.139  -8.521  15.938  0.00  0.00     0.165 HD
HETATM   32  H   UNK     0       6.713  -6.474  13.402  0.00  0.00     0.165 HD
ENDROOT
BRANCH   6  33
HETATM   33  C   UNK     0       1.388  -9.978  11.950  0.00  0.00     0.051 C 
BRANCH  33  34
HETATM   34  C   UNK     0       1.349 -10.692  10.619  0.00  0.00     0.114 C 
BRANCH  34  35
HETATM   35  C   UNK     0       0.100 -11.505  10.585  0.00  0.00     0.139 C 
HETATM   36  O   UNK     0      -0.666 -11.454   9.578  0.00  0.00    -0.650 OA
BRANCH  35  37
HETATM   37  O   UNK     0      -0.279 -12.341  11.628  0.00  0.00    -0.776 OA
HETATM   38  H   UNK     0      -1.133 -12.875  11.602  0.00  0.00     0.167 HD
ENDBRANCH  35  37
ENDBRANCH  34  35
ENDBRANCH  33  34
ENDBRANCH   6  33
BRANCH  27  39
HETATM   39  C   UNK     0       5.064  -4.042  17.138  0.00  0.00     0.051 C 
BRANCH  39  40
HETATM   40  C   UNK     0       5.905  -2.874  17.397  0.00  0.00     0.114 C 
BRANCH  40  41
HETATM   41  C   UNK     0       5.585  -1.563  16.878  0.00  0.00     0.139 C 
HETATM   42  O   UNK     0       4.436  -1.210  16.577  0.00  0.00    -0.650 OA
BRANCH  41  43
HETATM   43  O   UNK     0       6.632  -0.617  16.696  0.00  0.00    -0.776 OA
HETATM   44  H   UNK     0       7.520  -1.021  16.425  0.00  0.00     0.167 HD
ENDBRANCH  41  43
ENDBRANCH  40  41
ENDBRANCH  39  40
ENDBRANCH  27  39
BRANCH  11  45
HETATM   45  C   UNK     0       8.855 -12.750  13.246  0.00  0.00     0.051 C 
BRANCH  45  46
HETATM   46  C   UNK     0       9.707 -12.438  12.070  0.00  0.00     0.114 C 
BRANCH  46  47
HETATM   47  C   UNK     0      10.392 -13.702  11.673  0.00  0.00     0.139 C 
HETATM   48  O   UNK     0       9.699 -14.659  11.300  0.00  0.00    -0.650 OA
BRANCH  47  49
HETATM   49  O   UNK     0      11.759 -13.805  11.722  0.00  0.00    -0.776 OA
HETATM   50  H   UNK     0      12.230 -14.641  12.089  0.00  0.00     0.167 HD
ENDBRANCH  47  49
ENDBRANCH  46  47
ENDBRANCH  45  46
ENDBRANCH  11  45
BRANCH  18  51
HETATM   51  C   UNK     0      10.497  -6.744  16.407  0.00  0.00     0.051 C 
BRANCH  51  52
HETATM   52  C   UNK     0      10.876  -6.221  15.029  0.00  0.00     0.114 C 
BRANCH  52  53
HETATM   53  C   UNK     0      10.826  -4.748  14.967  0.00  0.00     0.139 C 
HETATM   54  O   UNK     0      11.080  -4.162  13.902  0.00  0.00    -0.650 OA
BRANCH  53  55
HETATM   55  O   UNK     0      10.501  -4.031  16.093  0.00  0.00    -0.776 OA
HETATM   56  H   UNK     0      11.093  -3.869  16.873  0.00  0.00     0.167 HD
ENDBRANCH  53  55
ENDBRANCH  52  53
ENDBRANCH  51  52
ENDBRANCH  18  51
TORSDOF 16
ENDMDL
MODEL 12
REMARK VINA RESULT:      -9.6     29.447     32.891
REMARK  16 active torsions:
REMARK  status: ('A' for Active; 'I' for Inactive)
REMARK    1  A    between atoms: C_6  and  C_7 
REMARK    2  A    between atoms: C_7  and  C_8 
REMARK    3  A    between atoms: C_8  and  C_9 
REMARK    4  A    between atoms: C_9  and  O_11 
REMARK    5  A    between atoms: C_16  and  C_17 
REMARK    6  A    between atoms: C_17  and  C_18 
REMARK    7  A    between atoms: C_18  and  C_19 
REMARK    8  A    between atoms: C_19  and  O_21 
REMARK    9  A    between atoms: C_28  and  C_29 
REMARK   10  A    between atoms: C_29  and  C_30 
REMARK   11  A    between atoms: C_30  and  C_31 
REMARK   12  A    between atoms: C_31  and  O_33 
REMARK   13  A    between atoms: C_42  and  C_43 
REMARK   14  A    between atoms: C_43  and  C_44 
REMARK   15  A    between atoms: C_44  and  C_45 
REMARK   16  A    between atoms: C_45  and  O_47 
ROOT
HETATM    1  C   UNK     0      19.761  18.147  -3.467  0.00  0.00     0.051 C 
HETATM    2  C   UNK     0      18.283  18.432  -3.645  0.00  0.00    -0.031 A 
HETATM    3  C   UNK     0      17.452  18.134  -4.714  0.00  0.00     0.021 A 
HETATM    4  N   UNK     0      16.210  18.606  -4.451  0.00  0.00    -0.361 N 
HETATM    5  C   UNK     0      16.229  19.190  -3.236  0.00  0.00     0.022 A 
HETATM    6  C   UNK     0      17.512  19.102  -2.704  0.00  0.00    -0.027 A 
HETATM    7  C   UNK     0      15.104  19.780  -2.445  0.00  0.00     0.115 C 
HETATM    8  C   UNK     0      13.799  19.003  -2.433  0.00  0.00     0.021 A 
HETATM    9  N   UNK     0      13.617  17.673  -2.435  0.00  0.00    -0.361 N 
HETATM   10  C   UNK     0      12.292  17.431  -2.517  0.00  0.00     0.022 A 
HETATM   11  C   UNK     0      11.600  18.639  -2.559  0.00  0.00    -0.027 A 
HETATM   12  C   UNK     0      12.543  19.633  -2.507  0.00  0.00    -0.031 A 
HETATM   13  C   UNK     0      12.252  21.116  -2.522  0.00  0.00     0.051 C 
HETATM   14  C   UNK     0      11.630  16.060  -2.611  0.00  0.00     0.115 C 
HETATM   15  C   UNK     0      12.040  15.261  -3.838  0.00  0.00     0.021 A 
HETATM   16  N   UNK     0      13.282  14.882  -4.193  0.00  0.00    -0.361 N 
HETATM   17  C   UNK     0      13.230  14.258  -5.372  0.00  0.00     0.022 A 
HETATM   18  C   UNK     0      11.888  14.220  -5.801  0.00  0.00    -0.027 A 
HETATM   19  C   UNK     0      11.153  14.850  -4.830  0.00  0.00    -0.031 A 
HETATM   20  C   UNK     0       9.643  15.000  -4.879  0.00  0.00     0.051 C 
HETATM   21  C   UNK     0      14.346  13.709  -6.232  0.00  0.00     0.115 C 
HETATM   22  C   UNK     0      15.664  14.447  -6.219  0.00  0.00     0.022 A 
HETATM   23  N   UNK     0      15.875  15.770  -6.213  0.00  0.00    -0.361 N 
HETATM   24  C   UNK     0      17.195  15.988  -6.052  0.00  0.00     0.021 A 
HETATM   25  C   UNK     0      17.853  14.776  -5.963  0.00  0.00    -0.031 A 
HETATM   26  C   UNK     0      19.336  14.503  -5.819  0.00  0.00     0.051 C 
HETATM   27  C   UNK     0      16.893  13.775  -6.067  0.00  0.00    -0.027 A 
HETATM   28  C   UNK     0      17.905  17.321  -5.893  0.00  0.00     0.115 C 
HETATM   29  H   UNK     0      15.338  18.558  -5.144  0.00  0.00     0.165 HD
HETATM   30  H   UNK     0      14.419  16.903  -2.328  0.00  0.00     0.165 HD
HETATM   31  H   UNK     0      14.210  15.016  -3.578  0.00  0.00     0.165 HD
HETATM   32  H   UNK     0      15.097  16.563  -6.365  0.00  0.00     0.165 HD
ENDROOT
BRANCH   6  33
HETATM   33  C   UNK     0      18.053  19.601  -1.389  0.00  0.00     0.051 C 
BRANCH  33  34
HETATM   34  C   UNK     0      18.148  18.475  -0.387  0.00  0.00     0.114 C 
BRANCH  34  35
HETATM   35  C   UNK     0      19.528  18.495   0.178  0.00  0.00     0.139 C 
HETATM   36  O   UNK     0      20.325  19.431  -0.121  0.00  0.00    -0.650 OA
BRANCH  35  37
HETATM   37  O   UNK     0      19.998  17.513   1.042  0.00  0.00    -0.776 OA
HETATM   38  H   UNK     0      20.234  16.587   0.722  0.00  0.00     0.167 HD
ENDBRANCH  35  37
ENDBRANCH  34  35
ENDBRANCH  33  34
ENDBRANCH   6  33
BRANCH  27  39
HETATM   39  C   UNK     0      17.232  12.326  -6.085  0.00  0.00     0.051 C 
BRANCH  39  40
HETATM   40  C   UNK     0      17.156  11.611  -7.359  0.00  0.00     0.114 C 
BRANCH  40  41
HETATM   41  C   UNK     0      15.913  11.082  -7.873  0.00  0.00     0.139 C 
HETATM   42  O   UNK     0      15.129  10.400  -7.198  0.00  0.00    -0.650 OA
BRANCH  41  43
HETATM   43  O   UNK     0      15.554  11.349  -9.225  0.00  0.00    -0.776 OA
HETATM   44  H   UNK     0      15.092  12.239  -9.368  0.00  0.00     0.167 HD
ENDBRANCH  41  43
ENDBRANCH  40  41
ENDBRANCH  39  40
ENDBRANCH  27  39
BRANCH  11  45
HETATM   45  C   UNK     0      10.115  18.871  -2.643  0.00  0.00     0.051 C 
BRANCH  45  46
HETATM   46  C   UNK     0       9.351  18.329  -1.490  0.00  0.00     0.114 C 
BRANCH  46  47
HETATM   47  C   UNK     0       8.279  17.453  -2.044  0.00  0.00     0.139 C 
HETATM   48  O   UNK     0       8.232  16.270  -1.676  0.00  0.00    -0.650 OA
BRANCH  47  49
HETATM   49  O   UNK     0       7.365  17.943  -2.941  0.00  0.00    -0.776 OA
HETATM   50  H   UNK     0       7.624  18.191  -3.903  0.00  0.00     0.167 HD
ENDBRANCH  47  49
ENDBRANCH  46  47
ENDBRANCH  45  46
ENDBRANCH  11  45
BRANCH  18  51
HETATM   51  C   UNK     0      11.334  13.598  -7.056  0.00  0.00     0.051 C 
BRANCH  51  52
HETATM   52  C   UNK     0      10.984  12.161  -6.701  0.00  0.00     0.114 C 
BRANCH  52  53
HETATM   53  C   UNK     0       9.670  11.765  -7.244  0.00  0.00     0.139 C 
HETATM   54  O   UNK     0       9.175  12.393  -8.194  0.00  0.00    -0.650 OA
BRANCH  53  55
HETATM   55  O   UNK     0       8.998  10.702  -6.691  0.00  0.00    -0.776 OA
HETATM   56  H   UNK     0       9.333  10.114  -5.965  0.00  0.00     0.167 HD
ENDBRANCH  53  55
ENDBRANCH  52  53
ENDBRANCH  51  52
ENDBRANCH  18  51
TORSDOF 16
ENDMDL
MODEL 13
REMARK VINA RESULT:      -9.6     28.759     32.576
REMARK  16 active torsions:
REMARK  status: ('A' for Active; 'I' for Inactive)
REMARK    1  A    between atoms: C_6  and  C_7 
REMARK    2  A    between atoms: C_7  and  C_8 
REMARK    3  A    between atoms: C_8  and  C_9 
REMARK    4  A    between atoms: C_9  and  O_11 
REMARK    5  A    between atoms: C_16  and  C_17 
REMARK    6  A    between atoms: C_17  and  C_18 
REMARK    7  A    between atoms: C_18  and  C_19 
REMARK    8  A    between atoms: C_19  and  O_21 
REMARK    9  A    between atoms: C_28  and  C_29 
REMARK   10  A    between atoms: C_29  and  C_30 
REMARK   11  A    between atoms: C_30  and  C_31 
REMARK   12  A    between atoms: C_31  and  O_33 
REMARK   13  A    between atoms: C_42  and  C_43 
REMARK   14  A    between atoms: C_43  and  C_44 
REMARK   15  A    between atoms: C_44  and  C_45 
REMARK   16  A    between atoms: C_45  and  O_47 
ROOT
HETATM    1  C   UNK     0       8.619  19.095  -2.141  0.00  0.00     0.051 C 
HETATM    2  C   UNK     0      10.088  18.723  -2.178  0.00  0.00    -0.031 A 
HETATM    3  C   UNK     0      10.680  17.472  -2.109  0.00  0.00     0.021 A 
HETATM    4  N   UNK     0      12.026  17.618  -2.147  0.00  0.00    -0.361 N 
HETATM    5  C   UNK     0      12.304  18.934  -2.247  0.00  0.00     0.022 A 
HETATM    6  C   UNK     0      11.114  19.655  -2.266  0.00  0.00    -0.027 A 
HETATM    7  C   UNK     0      13.624  19.618  -2.416  0.00  0.00     0.115 C 
HETATM    8  C   UNK     0      14.600  18.985  -3.392  0.00  0.00     0.021 A 
HETATM    9  N   UNK     0      14.337  18.357  -4.549  0.00  0.00    -0.361 N 
HETATM   10  C   UNK     0      15.499  17.873  -5.037  0.00  0.00     0.022 A 
HETATM   11  C   UNK     0      16.540  18.205  -4.175  0.00  0.00    -0.027 A 
HETATM   12  C   UNK     0      15.981  18.906  -3.137  0.00  0.00    -0.031 A 
HETATM   13  C   UNK     0      16.738  19.476  -1.959  0.00  0.00     0.051 C 
HETATM   14  C   UNK     0      15.666  17.035  -6.301  0.00  0.00     0.115 C 
HETATM   15  C   UNK     0      14.912  15.715  -6.269  0.00  0.00     0.021 A 
HETATM   16  N   UNK     0      13.589  15.528  -6.108  0.00  0.00    -0.361 N 
HETATM   17  C   UNK     0      13.332  14.219  -6.067  0.00  0.00     0.022 A 
HETATM   18  C   UNK     0      14.546  13.519  -6.219  0.00  0.00    -0.027 A 
HETATM   19  C   UNK     0      15.527  14.467  -6.346  0.00  0.00    -0.031 A 
HETATM   20  C   UNK     0      16.993  14.141  -6.567  0.00  0.00     0.051 C 
HETATM   21  C   UNK     0      12.028  13.491  -5.833  0.00  0.00     0.115 C 
HETATM   22  C   UNK     0      11.030  14.132  -4.898  0.00  0.00     0.022 A 
HETATM   23  N   UNK     0      11.264  14.767  -3.742  0.00  0.00    -0.361 N 
HETATM   24  C   UNK     0      10.105  15.308  -3.314  0.00  0.00     0.021 A 
HETATM   25  C   UNK     0       9.099  15.006  -4.211  0.00  0.00    -0.031 A 
HETATM   26  C   UNK     0       7.627  15.355  -4.146  0.00  0.00     0.051 C 
HETATM   27  C   UNK     0       9.666  14.254  -5.234  0.00  0.00    -0.027 A 
HETATM   28  C   UNK     0       9.886  16.196  -2.101  0.00  0.00     0.115 C 
HETATM   29  H   UNK     0      12.771  16.793  -2.062  0.00  0.00     0.165 HD
HETATM   30  H   UNK     0      13.340  18.298  -5.050  0.00  0.00     0.165 HD
HETATM   31  H   UNK     0      12.813  16.336  -6.070  0.00  0.00     0.165 HD
HETATM   32  H   UNK     0      12.241  14.802  -3.194  0.00  0.00     0.165 HD
ENDROOT
BRANCH   6  33
HETATM   33  C   UNK     0      10.881  21.141  -2.359  0.00  0.00     0.051 C 
BRANCH  33  34
HETATM   34  C   UNK     0      10.589  21.723  -0.996  0.00  0.00     0.114 C 
BRANCH  34  35
HETATM   35  C   UNK     0      11.732  22.609  -0.634  0.00  0.00     0.139 C 
HETATM   36  O   UNK     0      11.530  23.826  -0.350  0.00  0.00    -0.650 OA
BRANCH  35  37
HETATM   37  O   UNK     0      13.045  22.157  -0.588  0.00  0.00    -0.776 OA
HETATM   38  H   UNK     0      13.751  22.498  -1.220  0.00  0.00     0.167 HD
ENDBRANCH  35  37
ENDBRANCH  34  35
ENDBRANCH  33  34
ENDBRANCH   6  33
BRANCH  27  39
HETATM   39  C   UNK     0       8.872  13.681  -6.354  0.00  0.00     0.051 C 
BRANCH  39  40
HETATM   40  C   UNK     0       8.317  12.337  -6.196  0.00  0.00     0.114 C 
BRANCH  40  41
HETATM   41  C   UNK     0       7.068  12.095  -5.509  0.00  0.00     0.139 C 
HETATM   42  O   UNK     0       5.958  12.328  -6.007  0.00  0.00    -0.650 OA
BRANCH  41  43
HETATM   43  O   UNK     0       7.097  11.561  -4.190  0.00  0.00    -0.776 OA
HETATM   44  H   UNK     0       6.463  10.786  -4.038  0.00  0.00     0.167 HD
ENDBRANCH  41  43
ENDBRANCH  40  41
ENDBRANCH  39  40
ENDBRANCH  27  39
BRANCH  11  45
HETATM   45  C   UNK     0      18.006  17.890  -4.304  0.00  0.00     0.051 C 
BRANCH  45  46
HETATM   46  C   UNK     0      18.789  18.931  -5.016  0.00  0.00     0.114 C 
BRANCH  46  47
HETATM   47  C   UNK     0      19.081  18.407  -6.382  0.00  0.00     0.139 C 
HETATM   48  O   UNK     0      19.222  17.185  -6.529  0.00  0.00    -0.650 OA
BRANCH  47  49
HETATM   49  O   UNK     0      19.192  19.258  -7.452  0.00  0.00    -0.776 OA
HETATM   50  H   UNK     0      18.398  19.465  -8.069  0.00  0.00     0.167 HD
ENDBRANCH  47  49
ENDBRANCH  46  47
ENDBRANCH  45  46
ENDBRANCH  11  45
BRANCH  18  51
HETATM   51  C   UNK     0      14.756  12.027  -6.261  0.00  0.00     0.051 C 
BRANCH  51  52
HETATM   52  C   UNK     0      14.139  11.548  -7.567  0.00  0.00     0.114 C 
BRANCH  52  53
HETATM   53  C   UNK     0      15.160  11.031  -8.499  0.00  0.00     0.139 C 
HETATM   54  O   UNK     0      14.952  11.055  -9.723  0.00  0.00    -0.650 OA
BRANCH  53  55
HETATM   55  O   UNK     0      16.336  10.522  -8.005  0.00  0.00    -0.776 OA
HETATM   56  H   UNK     0      16.595  10.474  -7.048  0.00  0.00     0.167 HD
ENDBRANCH  53  55
ENDBRANCH  52  53
ENDBRANCH  51  52
ENDBRANCH  18  51
TORSDOF 16
ENDMDL
MODEL 14
REMARK VINA RESULT:      -9.6      3.568      8.333
REMARK  16 active torsions:
REMARK  status: ('A' for Active; 'I' for Inactive)
REMARK    1  A    between atoms: C_6  and  C_7 
REMARK    2  A    between atoms: C_7  and  C_8 
REMARK    3  A    between atoms: C_8  and  C_9 
REMARK    4  A    between atoms: C_9  and  O_11 
REMARK    5  A    between atoms: C_16  and  C_17 
REMARK    6  A    between atoms: C_17  and  C_18 
REMARK    7  A    between atoms: C_18  and  C_19 
REMARK    8  A    between atoms: C_19  and  O_21 
REMARK    9  A    between atoms: C_28  and  C_29 
REMARK   10  A    between atoms: C_29  and  C_30 
REMARK   11  A    between atoms: C_30  and  C_31 
REMARK   12  A    between atoms: C_31  and  O_33 
REMARK   13  A    between atoms: C_42  and  C_43 
REMARK   14  A    between atoms: C_43  and  C_44 
REMARK   15  A    between atoms: C_44  and  C_45 
REMARK   16  A    between atoms: C_45  and  O_47 
ROOT
HETATM    1  C   UNK     0      10.405 -13.717  13.025  0.00  0.00     0.051 C 
HETATM    2  C   UNK     0       9.443 -12.740  13.671  0.00  0.00    -0.031 A 
HETATM    3  C   UNK     0       9.569 -12.039  14.860  0.00  0.00     0.021 A 
HETATM    4  N   UNK     0       8.449 -11.305  15.060  0.00  0.00    -0.361 N 
HETATM    5  C   UNK     0       7.616 -11.516  14.020  0.00  0.00     0.022 A 
HETATM    6  C   UNK     0       8.206 -12.411  13.134  0.00  0.00    -0.027 A 
HETATM    7  C   UNK     0       6.298 -10.877  13.711  0.00  0.00     0.115 C 
HETATM    8  C   UNK     0       6.198  -9.379  13.933  0.00  0.00     0.021 A 
HETATM    9  N   UNK     0       7.138  -8.440  13.742  0.00  0.00    -0.361 N 
HETATM   10  C   UNK     0       6.639  -7.256  14.157  0.00  0.00     0.022 A 
HETATM   11  C   UNK     0       5.339  -7.436  14.620  0.00  0.00    -0.027 A 
HETATM   12  C   UNK     0       5.054  -8.770  14.481  0.00  0.00    -0.031 A 
HETATM   13  C   UNK     0       3.744  -9.428  14.854  0.00  0.00     0.051 C 
HETATM   14  C   UNK     0       7.383  -5.924  14.184  0.00  0.00     0.115 C 
HETATM   15  C   UNK     0       8.618  -5.927  15.070  0.00  0.00     0.021 A 
HETATM   16  N   UNK     0       9.695  -6.728  14.976  0.00  0.00    -0.361 N 
HETATM   17  C   UNK     0      10.530  -6.462  15.983  0.00  0.00     0.022 A 
HETATM   18  C   UNK     0       9.974  -5.431  16.767  0.00  0.00    -0.027 A 
HETATM   19  C   UNK     0       8.777  -5.104  16.183  0.00  0.00    -0.031 A 
HETATM   20  C   UNK     0       7.863  -4.004  16.692  0.00  0.00     0.051 C 
HETATM   21  C   UNK     0      11.833  -7.126  16.367  0.00  0.00     0.115 C 
HETATM   22  C   UNK     0      11.962  -8.609  16.110  0.00  0.00     0.022 A 
HETATM   23  N   UNK     0      11.042  -9.566  16.288  0.00  0.00    -0.361 N 
HETATM   24  C   UNK     0      11.532 -10.721  15.796  0.00  0.00     0.021 A 
HETATM   25  C   UNK     0      12.803 -10.506  15.299  0.00  0.00    -0.031 A 
HETATM   26  C   UNK     0      13.768 -11.499  14.685  0.00  0.00     0.051 C 
HETATM   27  C   UNK     0      13.101  -9.161  15.489  0.00  0.00    -0.027 A 
HETATM   28  C   UNK     0      10.823 -12.060  15.688  0.00  0.00     0.115 C 
HETATM   29  H   UNK     0       8.238 -10.673  15.953  0.00  0.00     0.165 HD
HETATM   30  H   UNK     0       8.137  -8.601  13.268  0.00  0.00     0.165 HD
HETATM   31  H   UNK     0       9.895  -7.465  14.154  0.00  0.00     0.165 HD
HETATM   32  H   UNK     0      10.053  -9.443  16.802  0.00  0.00     0.165 HD
ENDROOT
BRANCH   6  33
HETATM   33  C   UNK     0       7.688 -12.973  11.833  0.00  0.00     0.051 C 
BRANCH  33  34
HETATM   34  C   UNK     0       7.973 -12.026  10.691  0.00  0.00     0.114 C 
BRANCH  34  35
HETATM   35  C   UNK     0       8.813 -12.761   9.702  0.00  0.00     0.139 C 
HETATM   36  O   UNK     0      10.058 -12.542   9.636  0.00  0.00    -0.650 OA
BRANCH  35  37
HETATM   37  O   UNK     0       8.287 -13.702   8.825  0.00  0.00    -0.776 OA
HETATM   38  H   UNK     0       7.421 -14.180   9.010  0.00  0.00     0.167 HD
ENDBRANCH  35  37
ENDBRANCH  34  35
ENDBRANCH  33  34
ENDBRANCH   6  33
BRANCH  27  39
HETATM   39  C   UNK     0      14.419  -8.566  15.141  0.00  0.00     0.051 C 
BRANCH  39  40
HETATM   40  C   UNK     0      15.486  -8.610  16.140  0.00  0.00     0.114 C 
BRANCH  40  41
HETATM   41  C   UNK     0      15.321  -8.067  17.469  0.00  0.00     0.139 C 
HETATM   42  O   UNK     0      15.616  -6.903  17.773  0.00  0.00    -0.650 OA
BRANCH  41  43
HETATM   43  O   UNK     0      14.791  -8.899  18.496  0.00  0.00    -0.776 OA
HETATM   44  H   UNK     0      14.228  -8.412  19.182  0.00  0.00     0.167 HD
ENDBRANCH  41  43
ENDBRANCH  40  41
ENDBRANCH  39  40
ENDBRANCH  27  39
BRANCH  11  45
HETATM   45  C   UNK     0       4.385  -6.410  15.170  0.00  0.00     0.051 C 
BRANCH  45  46
HETATM   46  C   UNK     0       3.716  -5.585  14.131  0.00  0.00     0.114 C 
BRANCH  46  47
HETATM   47  C   UNK     0       3.976  -4.156  14.467  0.00  0.00     0.139 C 
HETATM   48  O   UNK     0       3.679  -3.288  13.634  0.00  0.00    -0.650 OA
BRANCH  47  49
HETATM   49  O   UNK     0       4.532  -3.807  15.672  0.00  0.00    -0.776 OA
HETATM   50  H   UNK     0       4.285  -4.286  16.546  0.00  0.00     0.167 HD
ENDBRANCH  47  49
ENDBRANCH  46  47
ENDBRANCH  45  46
ENDBRANCH  11  45
BRANCH  18  51
HETATM   51  C   UNK     0      10.561  -4.779  17.991  0.00  0.00     0.051 C 
BRANCH  51  52
HETATM   52  C   UNK     0      11.354  -3.579  17.496  0.00  0.00     0.114 C 
BRANCH  52  53
HETATM   53  C   UNK     0      12.729  -3.570  18.031  0.00  0.00     0.139 C 
HETATM   54  O   UNK     0      13.044  -2.768  18.924  0.00  0.00    -0.650 OA
BRANCH  53  55
HETATM   55  O   UNK     0      13.657  -4.452  17.533  0.00  0.00    -0.776 OA
HETATM   56  H   UNK     0      13.756  -5.405  17.793  0.00  0.00     0.167 HD
ENDBRANCH  53  55
ENDBRANCH  52  53
ENDBRANCH  51  52
ENDBRANCH  18  51
TORSDOF 16
ENDMDL
MODEL 15
REMARK VINA RESULT:      -9.5      2.625      7.166
REMARK  16 active torsions:
REMARK  status: ('A' for Active; 'I' for Inactive)
REMARK    1  A    between atoms: C_6  and  C_7 
REMARK    2  A    between atoms: C_7  and  C_8 
REMARK    3  A    between atoms: C_8  and  C_9 
REMARK    4  A    between atoms: C_9  and  O_11 
REMARK    5  A    between atoms: C_16  and  C_17 
REMARK    6  A    between atoms: C_17  and  C_18 
REMARK    7  A    between atoms: C_18  and  C_19 
REMARK    8  A    between atoms: C_19  and  O_21 
REMARK    9  A    between atoms: C_28  and  C_29 
REMARK   10  A    between atoms: C_29  and  C_30 
REMARK   11  A    between atoms: C_30  and  C_31 
REMARK   12  A    between atoms: C_31  and  O_33 
REMARK   13  A    between atoms: C_42  and  C_43 
REMARK   14  A    between atoms: C_43  and  C_44 
REMARK   15  A    between atoms: C_44  and  C_45 
REMARK   16  A    between atoms: C_45  and  O_47 
ROOT
HETATM    1  C   UNK     0       9.727  -3.922  17.577  0.00  0.00     0.051 C 
HETATM    2  C   UNK     0       9.044  -5.228  17.226  0.00  0.00    -0.031 A 
HETATM    3  C   UNK     0       7.702  -5.568  17.305  0.00  0.00     0.021 A 
HETATM    4  N   UNK     0       7.550  -6.857  16.918  0.00  0.00    -0.361 N 
HETATM    5  C   UNK     0       8.764  -7.343  16.585  0.00  0.00     0.022 A 
HETATM    6  C   UNK     0       9.722  -6.351  16.769  0.00  0.00    -0.027 A 
HETATM    7  C   UNK     0       9.131  -8.675  16.009  0.00  0.00     0.115 C 
HETATM    8  C   UNK     0       8.231  -9.214  14.911  0.00  0.00     0.021 A 
HETATM    9  N   UNK     0       7.593  -8.536  13.944  0.00  0.00    -0.361 N 
HETATM   10  C   UNK     0       6.834  -9.410  13.251  0.00  0.00     0.022 A 
HETATM   11  C   UNK     0       6.995 -10.688  13.779  0.00  0.00    -0.027 A 
HETATM   12  C   UNK     0       7.874 -10.571  14.825  0.00  0.00    -0.031 A 
HETATM   13  C   UNK     0       8.351 -11.711  15.697  0.00  0.00     0.051 C 
HETATM   14  C   UNK     0       5.890  -9.069  12.101  0.00  0.00     0.115 C 
HETATM   15  C   UNK     0       4.770  -8.115  12.486  0.00  0.00     0.021 A 
HETATM   16  N   UNK     0       4.887  -6.873  12.992  0.00  0.00    -0.361 N 
HETATM   17  C   UNK     0       3.671  -6.393  13.261  0.00  0.00     0.022 A 
HETATM   18  C   UNK     0       2.715  -7.366  12.905  0.00  0.00    -0.027 A 
HETATM   19  C   UNK     0       3.417  -8.439  12.419  0.00  0.00    -0.031 A 
HETATM   20  C   UNK     0       2.765  -9.701  11.886  0.00  0.00     0.051 C 
HETATM   21  C   UNK     0       3.262  -5.086  13.901  0.00  0.00     0.115 C 
HETATM   22  C   UNK     0       4.171  -4.516  14.964  0.00  0.00     0.022 A 
HETATM   23  N   UNK     0       4.823  -5.167  15.936  0.00  0.00    -0.361 N 
HETATM   24  C   UNK     0       5.632  -4.291  16.565  0.00  0.00     0.021 A 
HETATM   25  C   UNK     0       5.491  -3.042  15.990  0.00  0.00    -0.031 A 
HETATM   26  C   UNK     0       6.155  -1.736  16.373  0.00  0.00     0.051 C 
HETATM   27  C   UNK     0       4.561  -3.161  14.964  0.00  0.00    -0.027 A 
HETATM   28  C   UNK     0       6.633  -4.578  17.671  0.00  0.00     0.115 C 
HETATM   29  H   UNK     0       6.592  -7.426  16.919  0.00  0.00     0.165 HD
HETATM   30  H   UNK     0       7.715  -7.449  13.718  0.00  0.00     0.165 HD
HETATM   31  H   UNK     0       5.845  -6.304  13.117  0.00  0.00     0.165 HD
HETATM   32  H   UNK     0       4.685  -6.244  16.216  0.00  0.00     0.165 HD
ENDROOT
BRANCH   6  33
HETATM   33  C   UNK     0      11.213  -6.389  16.548  0.00  0.00     0.051 C 
BRANCH  33  34
HETATM   34  C   UNK     0      11.537  -6.327  15.075  0.00  0.00     0.114 C 
BRANCH  34  35
HETATM   35  C   UNK     0      11.761  -4.894  14.727  0.00  0.00     0.139 C 
HETATM   36  O   UNK     0      10.904  -4.263  14.043  0.00  0.00    -0.650 OA
BRANCH  35  37
HETATM   37  O   UNK     0      12.892  -4.194  15.128  0.00  0.00    -0.776 OA
HETATM   38  H   UNK     0      13.495  -4.527  15.863  0.00  0.00     0.167 HD
ENDBRANCH  35  37
ENDBRANCH  34  35
ENDBRANCH  33  34
ENDBRANCH   6  33
BRANCH  27  39
HETATM   39  C   UNK     0       4.093  -2.002  14.156  0.00  0.00     0.051 C 
BRANCH  39  40
HETATM   40  C   UNK     0       2.848  -1.341  14.547  0.00  0.00     0.114 C 
BRANCH  40  41
HETATM   41  C   UNK     0       1.594  -1.599  13.874  0.00  0.00     0.139 C 
HETATM   42  O   UNK     0       0.698  -2.310  14.348  0.00  0.00    -0.650 OA
BRANCH  41  43
HETATM   43  O   UNK     0       1.361  -1.012  12.598  0.00  0.00    -0.776 OA
HETATM   44  H   UNK     0       0.894  -0.114  12.629  0.00  0.00     0.167 HD
ENDBRANCH  41  43
ENDBRANCH  40  41
ENDBRANCH  39  40
ENDBRANCH  27  39
BRANCH  11  45
HETATM   45  C   UNK     0       6.360 -11.978  13.333  0.00  0.00     0.051 C 
BRANCH  45  46
HETATM   46  C   UNK     0       7.151 -12.724  12.321  0.00  0.00     0.114 C 
BRANCH  46  47
HETATM   47  C   UNK     0       7.535 -14.028  12.934  0.00  0.00     0.139 C 
HETATM   48  O   UNK     0       8.690 -14.443  12.767  0.00  0.00    -0.650 OA
BRANCH  47  49
HETATM   49  O   UNK     0       6.630 -14.754  13.666  0.00  0.00    -0.776 OA
HETATM   50  H   UNK     0       6.192 -15.607  13.299  0.00  0.00     0.167 HD
ENDBRANCH  47  49
ENDBRANCH  46  47
ENDBRANCH  45  46
ENDBRANCH  11  45
BRANCH  18  51
HETATM   51  C   UNK     0       1.215  -7.269  13.002  0.00  0.00     0.051 C 
BRANCH  51  52
HETATM   52  C   UNK     0       0.772  -6.362  11.863  0.00  0.00     0.114 C 
BRANCH  52  53
HETATM   53  C   UNK     0       0.140  -5.125  12.359  0.00  0.00     0.139 C 
HETATM   54  O   UNK     0      -0.700  -5.179  13.272  0.00  0.00    -0.650 OA
BRANCH  53  55
HETATM   55  O   UNK     0       0.484  -3.916  11.804  0.00  0.00    -0.776 OA
HETATM   56  H   UNK     0       1.406  -3.607  11.604  0.00  0.00     0.167 HD
ENDBRANCH  53  55
ENDBRANCH  52  53
ENDBRANCH  51  52
ENDBRANCH  18  51
TORSDOF 16
ENDMDL
MODEL 16
REMARK VINA RESULT:      -9.3      2.628      7.259
REMARK  16 active torsions:
REMARK  status: ('A' for Active; 'I' for Inactive)
REMARK    1  A    between atoms: C_6  and  C_7 
REMARK    2  A    between atoms: C_7  and  C_8 
REMARK    3  A    between atoms: C_8  and  C_9 
REMARK    4  A    between atoms: C_9  and  O_11 
REMARK    5  A    between atoms: C_16  and  C_17 
REMARK    6  A    between atoms: C_17  and  C_18 
REMARK    7  A    between atoms: C_18  and  C_19 
REMARK    8  A    between atoms: C_19  and  O_21 
REMARK    9  A    between atoms: C_28  and  C_29 
REMARK   10  A    between atoms: C_29  and  C_30 
REMARK   11  A    between atoms: C_30  and  C_31 
REMARK   12  A    between atoms: C_31  and  O_33 
REMARK   13  A    between atoms: C_42  and  C_43 
REMARK   14  A    between atoms: C_43  and  C_44 
REMARK   15  A    between atoms: C_44  and  C_45 
REMARK   16  A    between atoms: C_45  and  O_47 
ROOT
HETATM    1  C   UNK     0       7.737  -4.308  16.651  0.00  0.00     0.051 C 
HETATM    2  C   UNK     0       7.431  -5.767  16.381  0.00  0.00    -0.031 A 
HETATM    3  C   UNK     0       6.206  -6.394  16.220  0.00  0.00     0.021 A 
HETATM    4  N   UNK     0       6.410  -7.719  16.027  0.00  0.00    -0.361 N 
HETATM    5  C   UNK     0       7.739  -7.948  16.053  0.00  0.00     0.022 A 
HETATM    6  C   UNK     0       8.408  -6.749  16.275  0.00  0.00    -0.027 A 
HETATM    7  C   UNK     0       8.491  -9.218  15.800  0.00  0.00     0.115 C 
HETATM    8  C   UNK     0       8.017 -10.070  14.636  0.00  0.00     0.021 A 
HETATM    9  N   UNK     0       7.520  -9.672  13.455  0.00  0.00    -0.361 N 
HETATM   10  C   UNK     0       7.144 -10.770  12.766  0.00  0.00     0.022 A 
HETATM   11  C   UNK     0       7.414 -11.908  13.521  0.00  0.00    -0.027 A 
HETATM   12  C   UNK     0       7.964 -11.474  14.700  0.00  0.00    -0.031 A 
HETATM   13  C   UNK     0       8.422 -12.367  15.831  0.00  0.00     0.051 C 
HETATM   14  C   UNK     0       6.469 -10.788  11.398  0.00  0.00     0.115 C 
HETATM   15  C   UNK     0       5.125 -10.078  11.365  0.00  0.00     0.021 A 
HETATM   16  N   UNK     0       4.867  -8.793  11.672  0.00  0.00    -0.361 N 
HETATM   17  C   UNK     0       3.552  -8.577  11.585  0.00  0.00     0.022 A 
HETATM   18  C   UNK     0       2.925  -9.776  11.194  0.00  0.00    -0.027 A 
HETATM   19  C   UNK     0       3.921 -10.709  11.058  0.00  0.00    -0.031 A 
HETATM   20  C   UNK     0       3.682 -12.139  10.612  0.00  0.00     0.051 C 
HETATM   21  C   UNK     0       2.749  -7.334  11.895  0.00  0.00     0.115 C 
HETATM   22  C   UNK     0       3.235  -6.453  13.022  0.00  0.00     0.022 A 
HETATM   23  N   UNK     0       3.738  -6.822  14.207  0.00  0.00    -0.361 N 
HETATM   24  C   UNK     0       4.178  -5.718  14.843  0.00  0.00     0.021 A 
HETATM   25  C   UNK     0       3.943  -4.609  14.053  0.00  0.00    -0.031 A 
HETATM   26  C   UNK     0       4.222  -3.150  14.350  0.00  0.00     0.051 C 
HETATM   27  C   UNK     0       3.340  -5.054  12.882  0.00  0.00    -0.027 A 
HETATM   28  C   UNK     0       4.907  -5.640  16.173  0.00  0.00     0.115 C 
HETATM   29  H   UNK     0       5.612  -8.489  15.913  0.00  0.00     0.165 HD
HETATM   30  H   UNK     0       7.480  -8.618  13.084  0.00  0.00     0.165 HD
HETATM   31  H   UNK     0       5.633  -8.009  11.908  0.00  0.00     0.165 HD
HETATM   32  H   UNK     0       3.748  -7.863  14.624  0.00  0.00     0.165 HD
ENDROOT
BRANCH   6  33
HETATM   33  C   UNK     0       9.884  -6.470  16.396  0.00  0.00     0.051 C 
BRANCH  33  34
HETATM   34  C   UNK     0      10.486  -6.176  15.042  0.00  0.00     0.114 C 
BRANCH  34  35
HETATM   35  C   UNK     0      11.948  -6.451  15.134  0.00  0.00     0.139 C 
HETATM   36  O   UNK     0      12.638  -6.590  14.082  0.00  0.00    -0.650 OA
BRANCH  35  37
HETATM   37  O   UNK     0      12.615  -6.562  16.349  0.00  0.00    -0.776 OA
HETATM   38  H   UNK     0      13.614  -6.681  16.401  0.00  0.00     0.167 HD
ENDBRANCH  35  37
ENDBRANCH  34  35
ENDBRANCH  33  34
ENDBRANCH   6  33
BRANCH  27  39
HETATM   39  C   UNK     0       2.871  -4.133  11.811  0.00  0.00     0.051 C 
BRANCH  39  40
HETATM   40  C   UNK     0       1.514  -3.595  11.903  0.00  0.00     0.114 C 
BRANCH  40  41
HETATM   41  C   UNK     0       0.466  -4.270  12.635  0.00  0.00     0.139 C 
HETATM   42  O   UNK     0       0.344  -4.208  13.866  0.00  0.00    -0.650 OA
BRANCH  41  43
HETATM   43  O   UNK     0      -0.485  -5.050  11.919  0.00  0.00    -0.776 OA
HETATM   44  H   UNK     0      -0.753  -4.665  11.021  0.00  0.00     0.167 HD
ENDBRANCH  41  43
ENDBRANCH  40  41
ENDBRANCH  39  40
ENDBRANCH  27  39
BRANCH  11  45
HETATM   45  C   UNK     0       7.176 -13.351  13.167  0.00  0.00     0.051 C 
BRANCH  45  46
HETATM   46  C   UNK     0       8.416 -14.119  12.888  0.00  0.00     0.114 C 
BRANCH  46  47
HETATM   47  C   UNK     0       9.033 -13.533  11.663  0.00  0.00     0.139 C 
HETATM   48  O   UNK     0      10.147 -13.000  11.758  0.00  0.00    -0.650 OA
BRANCH  47  49
HETATM   49  O   UNK     0       8.381 -13.580  10.457  0.00  0.00    -0.776 OA
HETATM   50  H   UNK     0       7.552 -14.168  10.308  0.00  0.00     0.167 HD
ENDBRANCH  47  49
ENDBRANCH  46  47
ENDBRANCH  45  46
ENDBRANCH  11  45
BRANCH  18  51
HETATM   51  C   UNK     0       1.458 -10.015  10.943  0.00  0.00     0.051 C 
BRANCH  51  52
HETATM   52  C   UNK     0       1.001 -11.009  12.000  0.00  0.00     0.114 C 
BRANCH  52  53
HETATM   53  C   UNK     0       0.698 -10.346  13.283  0.00  0.00     0.139 C 
HETATM   54  O   UNK     0       0.085  -9.267  13.295  0.00  0.00    -0.650 OA
BRANCH  53  55
HETATM   55  O   UNK     0       1.100 -10.928  14.461  0.00  0.00    -0.776 OA
HETATM   56  H   UNK     0       2.018 -10.908  14.838  0.00  0.00     0.167 HD
ENDBRANCH  53  55
ENDBRANCH  52  53
ENDBRANCH  51  52
ENDBRANCH  18  51
TORSDOF 16
ENDMDL
MODEL 17
REMARK VINA RESULT:      -9.3     28.151     32.359
REMARK  16 active torsions:
REMARK  status: ('A' for Active; 'I' for Inactive)
REMARK    1  A    between atoms: C_6  and  C_7 
REMARK    2  A    between atoms: C_7  and  C_8 
REMARK    3  A    between atoms: C_8  and  C_9 
REMARK    4  A    between atoms: C_9  and  O_11 
REMARK    5  A    between atoms: C_16  and  C_17 
REMARK    6  A    between atoms: C_17  and  C_18 
REMARK    7  A    between atoms: C_18  and  C_19 
REMARK    8  A    between atoms: C_19  and  O_21 
REMARK    9  A    between atoms: C_28  and  C_29 
REMARK   10  A    between atoms: C_29  and  C_30 
REMARK   11  A    between atoms: C_30  and  C_31 
REMARK   12  A    between atoms: C_31  and  O_33 
REMARK   13  A    between atoms: C_42  and  C_43 
REMARK   14  A    between atoms: C_43  and  C_44 
REMARK   15  A    between atoms: C_44  and  C_45 
REMARK   16  A    between atoms: C_45  and  O_47 
ROOT
HETATM    1  C   UNK     0      17.287  18.291  -4.396  0.00  0.00     0.051 C 
HETATM    2  C   UNK     0      15.799  18.540  -4.264  0.00  0.00    -0.031 A 
HETATM    3  C   UNK     0      14.768  18.188  -5.120  0.00  0.00     0.021 A 
HETATM    4  N   UNK     0      13.598  18.644  -4.614  0.00  0.00    -0.361 N 
HETATM    5  C   UNK     0      13.859  19.272  -3.449  0.00  0.00     0.022 A 
HETATM    6  C   UNK     0      15.227  19.229  -3.201  0.00  0.00    -0.027 A 
HETATM    7  C   UNK     0      12.912  19.868  -2.455  0.00  0.00     0.115 C 
HETATM    8  C   UNK     0      11.661  19.067  -2.142  0.00  0.00     0.021 A 
HETATM    9  N   UNK     0      11.519  17.735  -2.063  0.00  0.00    -0.361 N 
HETATM   10  C   UNK     0      10.213  17.464  -1.852  0.00  0.00     0.022 A 
HETATM   11  C   UNK     0       9.496  18.655  -1.784  0.00  0.00    -0.027 A 
HETATM   12  C   UNK     0      10.402  19.669  -1.965  0.00  0.00    -0.031 A 
HETATM   13  C   UNK     0      10.074  21.145  -1.964  0.00  0.00     0.051 C 
HETATM   14  C   UNK     0       9.583  16.077  -1.760  0.00  0.00     0.115 C 
HETATM   15  C   UNK     0       9.745  15.243  -3.021  0.00  0.00     0.021 A 
HETATM   16  N   UNK     0      10.893  14.876  -3.621  0.00  0.00    -0.361 N 
HETATM   17  C   UNK     0      10.608  14.208  -4.741  0.00  0.00     0.022 A 
HETATM   18  C   UNK     0       9.207  14.128  -4.872  0.00  0.00    -0.027 A 
HETATM   19  C   UNK     0       8.679  14.779  -3.788  0.00  0.00    -0.031 A 
HETATM   20  C   UNK     0       7.190  14.897  -3.517  0.00  0.00     0.051 C 
HETATM   21  C   UNK     0      11.530  13.651  -5.802  0.00  0.00     0.115 C 
HETATM   22  C   UNK     0      12.800  14.414  -6.093  0.00  0.00     0.022 A 
HETATM   23  N   UNK     0      12.972  15.740  -6.174  0.00  0.00    -0.361 N 
HETATM   24  C   UNK     0      14.290  15.989  -6.306  0.00  0.00     0.021 A 
HETATM   25  C   UNK     0      14.984  14.794  -6.321  0.00  0.00    -0.031 A 
HETATM   26  C   UNK     0      16.470  14.557  -6.489  0.00  0.00     0.051 C 
HETATM   27  C   UNK     0      14.051  13.772  -6.187  0.00  0.00    -0.027 A 
HETATM   28  C   UNK     0      14.981  17.341  -6.344  0.00  0.00     0.115 C 
HETATM   29  H   UNK     0      12.600  18.554  -5.103  0.00  0.00     0.165 HD
HETATM   30  H   UNK     0      12.346  16.984  -2.105  0.00  0.00     0.165 HD
HETATM   31  H   UNK     0      11.926  15.049  -3.222  0.00  0.00     0.165 HD
HETATM   32  H   UNK     0      12.158  16.512  -6.182  0.00  0.00     0.165 HD
ENDROOT
BRANCH   6  33
HETATM   33  C   UNK     0      16.022  19.786  -2.048  0.00  0.00     0.051 C 
BRANCH  33  34
HETATM   34  C   UNK     0      17.331  19.048  -1.894  0.00  0.00     0.114 C 
BRANCH  34  35
HETATM   35  C   UNK     0      17.133  18.001  -0.850  0.00  0.00     0.139 C 
HETATM   36  O   UNK     0      17.930  17.920   0.130  0.00  0.00    -0.650 OA
BRANCH  35  37
HETATM   37  O   UNK     0      16.090  17.085  -0.896  0.00  0.00    -0.776 OA
HETATM   38  H   UNK     0      15.293  17.212  -1.500  0.00  0.00     0.167 HD
ENDBRANCH  35  37
ENDBRANCH  34  35
ENDBRANCH  33  34
ENDBRANCH   6  33
BRANCH  27  39
HETATM   39  C   UNK     0      14.418  12.330  -6.231  0.00  0.00     0.051 C 
BRANCH  39  40
HETATM   40  C   UNK     0      14.105  11.572  -7.442  0.00  0.00     0.114 C 
BRANCH  40  41
HETATM   41  C   UNK     0      15.133  10.982  -8.270  0.00  0.00     0.139 C 
HETATM   42  O   UNK     0      14.943  10.000  -9.000  0.00  0.00    -0.650 OA
BRANCH  41  43
HETATM   43  O   UNK     0      16.439  11.549  -8.257  0.00  0.00    -0.776 OA
HETATM   44  H   UNK     0      16.586  12.279  -8.944  0.00  0.00     0.167 HD
ENDBRANCH  41  43
ENDBRANCH  40  41
ENDBRANCH  39  40
ENDBRANCH  27  39
BRANCH  11  45
HETATM   45  C   UNK     0       8.021  18.855  -1.556  0.00  0.00     0.051 C 
BRANCH  45  46
HETATM   46  C   UNK     0       7.183  18.605  -2.757  0.00  0.00     0.114 C 
BRANCH  46  47
HETATM   47  C   UNK     0       6.138  19.668  -2.794  0.00  0.00     0.139 C 
HETATM   48  O   UNK     0       6.427  20.767  -3.286  0.00  0.00    -0.650 OA
BRANCH  47  49
HETATM   49  O   UNK     0       4.882  19.435  -2.292  0.00  0.00    -0.776 OA
HETATM   50  H   UNK     0       4.200  18.844  -2.783  0.00  0.00     0.167 HD
ENDBRANCH  47  49
ENDBRANCH  46  47
ENDBRANCH  45  46
ENDBRANCH  11  45
BRANCH  18  51
HETATM   51  C   UNK     0       8.416  13.451  -5.961  0.00  0.00     0.051 C 
BRANCH  51  52
HETATM   52  C   UNK     0       8.148  12.034  -5.474  0.00  0.00     0.114 C 
BRANCH  52  53
HETATM   53  C   UNK     0       6.728  11.661  -5.623  0.00  0.00     0.139 C 
HETATM   54  O   UNK     0       5.890  12.520  -5.939  0.00  0.00    -0.650 OA
BRANCH  53  55
HETATM   55  O   UNK     0       6.341  10.361  -5.407  0.00  0.00    -0.776 OA
HETATM   56  H   UNK     0       6.662   9.769  -4.677  0.00  0.00     0.167 HD
ENDBRANCH  53  55
ENDBRANCH  52  53
ENDBRANCH  51  52
ENDBRANCH  18  51
TORSDOF 16
ENDMDL
MODEL 18
REMARK VINA RESULT:      -9.1      3.058      7.644
REMARK  16 active torsions:
REMARK  status: ('A' for Active; 'I' for Inactive)
REMARK    1  A    between atoms: C_6  and  C_7 
REMARK    2  A    between atoms: C_7  and  C_8 
REMARK    3  A    between atoms: C_8  and  C_9 
REMARK    4  A    between atoms: C_9  and  O_11 
REMARK    5  A    between atoms: C_16  and  C_17 
REMARK    6  A    between atoms: C_17  and  C_18 
REMARK    7  A    between atoms: C_18  and  C_19 
REMARK    8  A    between atoms: C_19  and  O_21 
REMARK    9  A    between atoms: C_28  and  C_29 
REMARK   10  A    between atoms: C_29  and  C_30 
REMARK   11  A    between atoms: C_30  and  C_31 
REMARK   12  A    between atoms: C_31  and  O_33 
REMARK   13  A    between atoms: C_42  and  C_43 
REMARK   14  A    between atoms: C_43  and  C_44 
REMARK   15  A    between atoms: C_44  and  C_45 
REMARK   16  A    between atoms: C_45  and  O_47 
ROOT
HETATM    1  C   UNK     0       8.567 -13.906  11.629  0.00  0.00     0.051 C 
HETATM    2  C   UNK     0       7.575 -12.897  12.170  0.00  0.00    -0.031 A 
HETATM    3  C   UNK     0       7.421 -12.420  13.462  0.00  0.00     0.021 A 
HETATM    4  N   UNK     0       6.382 -11.551  13.491  0.00  0.00    -0.361 N 
HETATM    5  C   UNK     0       5.877 -11.458  12.244  0.00  0.00     0.022 A 
HETATM    6  C   UNK     0       6.598 -12.289  11.393  0.00  0.00    -0.027 A 
HETATM    7  C   UNK     0       4.791 -10.570  11.721  0.00  0.00     0.115 C 
HETATM    8  C   UNK     0       4.799  -9.129  12.199  0.00  0.00     0.021 A 
HETATM    9  N   UNK     0       5.854  -8.340  12.458  0.00  0.00    -0.361 N 
HETATM   10  C   UNK     0       5.392  -7.169  12.946  0.00  0.00     0.022 A 
HETATM   11  C   UNK     0       4.001  -7.202  12.995  0.00  0.00    -0.027 A 
HETATM   12  C   UNK     0       3.621  -8.433  12.525  0.00  0.00    -0.031 A 
HETATM   13  C   UNK     0       2.194  -8.916  12.391  0.00  0.00     0.051 C 
HETATM   14  C   UNK     0       6.240  -5.999  13.435  0.00  0.00     0.115 C 
HETATM   15  C   UNK     0       7.148  -6.343  14.605  0.00  0.00     0.021 A 
HETATM   16  N   UNK     0       8.107  -7.287  14.650  0.00  0.00    -0.361 N 
HETATM   17  C   UNK     0       8.630  -7.323  15.878  0.00  0.00     0.022 A 
HETATM   18  C   UNK     0       7.987  -6.349  16.668  0.00  0.00    -0.027 A 
HETATM   19  C   UNK     0       7.062  -5.742  15.859  0.00  0.00    -0.031 A 
HETATM   20  C   UNK     0       6.169  -4.599  16.307  0.00  0.00     0.051 C 
HETATM   21  C   UNK     0       9.676  -8.244  16.463  0.00  0.00     0.115 C 
HETATM   22  C   UNK     0       9.708  -9.669  15.964  0.00  0.00     0.022 A 
HETATM   23  N   UNK     0       8.674 -10.477  15.693  0.00  0.00    -0.361 N 
HETATM   24  C   UNK     0       9.154 -11.607  15.135  0.00  0.00     0.021 A 
HETATM   25  C   UNK     0      10.531 -11.529  15.054  0.00  0.00    -0.031 A 
HETATM   26  C   UNK     0      11.515 -12.560  14.542  0.00  0.00     0.051 C 
HETATM   27  C   UNK     0      10.909 -10.298  15.578  0.00  0.00    -0.027 A 
HETATM   28  C   UNK     0       8.362 -12.777  14.578  0.00  0.00     0.115 C 
HETATM   29  H   UNK     0       5.989 -11.040  14.400  0.00  0.00     0.165 HD
HETATM   30  H   UNK     0       6.923  -8.587  12.250  0.00  0.00     0.165 HD
HETATM   31  H   UNK     0       8.456  -7.909  13.785  0.00  0.00     0.165 HD
HETATM   32  H   UNK     0       7.598 -10.275  15.934  0.00  0.00     0.165 HD
ENDROOT
BRANCH   6  33
HETATM   33  C   UNK     0       6.429 -12.547   9.917  0.00  0.00     0.051 C 
BRANCH  33  34
HETATM   34  C   UNK     0       5.019 -12.993   9.609  0.00  0.00     0.114 C 
BRANCH  34  35
HETATM   35  C   UNK     0       4.963 -13.328   8.157  0.00  0.00     0.139 C 
HETATM   36  O   UNK     0       4.126 -12.753   7.403  0.00  0.00    -0.650 OA
BRANCH  35  37
HETATM   37  O   UNK     0       5.808 -14.263   7.571  0.00  0.00    -0.776 OA
HETATM   38  H   UNK     0       6.324 -14.933   8.117  0.00  0.00     0.167 HD
ENDBRANCH  35  37
ENDBRANCH  34  35
ENDBRANCH  33  34
ENDBRANCH   6  33
BRANCH  27  39
HETATM   39  C   UNK     0      12.330  -9.881  15.725  0.00  0.00     0.051 C 
BRANCH  39  40
HETATM   40  C   UNK     0      12.976 -10.064  17.024  0.00  0.00     0.114 C 
BRANCH  40  41
HETATM   41  C   UNK     0      14.113  -9.272  17.438  0.00  0.00     0.139 C 
HETATM   42  O   UNK     0      15.287  -9.644  17.311  0.00  0.00    -0.650 OA
BRANCH  41  43
HETATM   43  O   UNK     0      13.888  -7.994  18.023  0.00  0.00    -0.776 OA
HETATM   44  H   UNK     0      14.732  -7.468  18.218  0.00  0.00     0.167 HD
ENDBRANCH  41  43
ENDBRANCH  40  41
ENDBRANCH  39  40
ENDBRANCH  27  39
BRANCH  11  45
HETATM   45  C   UNK     0       3.049  -6.131  13.456  0.00  0.00     0.051 C 
BRANCH  45  46
HETATM   46  C   UNK     0       2.707  -5.133  12.411  0.00  0.00     0.114 C 
BRANCH  46  47
HETATM   47  C   UNK     0       1.257  -4.818  12.560  0.00  0.00     0.139 C 
HETATM   48  O   UNK     0       0.874  -3.664  12.319  0.00  0.00    -0.650 OA
BRANCH  47  49
HETATM   49  O   UNK     0       0.365  -5.783  12.955  0.00  0.00    -0.776 OA
HETATM   50  H   UNK     0      -0.623  -5.571  13.134  0.00  0.00     0.167 HD
ENDBRANCH  47  49
ENDBRANCH  46  47
ENDBRANCH  45  46
ENDBRANCH  11  45
BRANCH  18  51
HETATM   51  C   UNK     0       8.254  -6.001  18.110  0.00  0.00     0.051 C 
BRANCH  51  52
HETATM   52  C   UNK     0       8.816  -4.588  18.110  0.00  0.00     0.114 C 
BRANCH  52  53
HETATM   53  C   UNK     0      10.105  -4.508  17.396  0.00  0.00     0.139 C 
HETATM   54  O   UNK     0      11.076  -5.174  17.789  0.00  0.00    -0.650 OA
BRANCH  53  55
HETATM   55  O   UNK     0      10.224  -3.692  16.297  0.00  0.00    -0.776 OA
HETATM   56  H   UNK     0      10.422  -2.719  16.311  0.00  0.00     0.167 HD
ENDBRANCH  53  55
ENDBRANCH  52  53
ENDBRANCH  51  52
ENDBRANCH  18  51
TORSDOF 16
ENDMDL
MODEL 19
REMARK VINA RESULT:      -9.0      2.460      7.492
REMARK  16 active torsions:
REMARK  status: ('A' for Active; 'I' for Inactive)
REMARK    1  A    between atoms: C_6  and  C_7 
REMARK    2  A    between atoms: C_7  and  C_8 
REMARK    3  A    between atoms: C_8  and  C_9 
REMARK    4  A    between atoms: C_9  and  O_11 
REMARK    5  A    between atoms: C_16  and  C_17 
REMARK    6  A    between atoms: C_17  and  C_18 
REMARK    7  A    between atoms: C_18  and  C_19 
REMARK    8  A    between atoms: C_19  and  O_21 
REMARK    9  A    between atoms: C_28  and  C_29 
REMARK   10  A    between atoms: C_29  and  C_30 
REMARK   11  A    between atoms: C_30  and  C_31 
REMARK   12  A    between atoms: C_31  and  O_33 
REMARK   13  A    between atoms: C_42  and  C_43 
REMARK   14  A    between atoms: C_43  and  C_44 
REMARK   15  A    between atoms: C_44  and  C_45 
REMARK   16  A    between atoms: C_45  and  O_47 
ROOT
HETATM    1  C   UNK     0       8.734  -4.057  16.725  0.00  0.00     0.051 C 
HETATM    2  C   UNK     0       7.766  -5.139  16.292  0.00  0.00    -0.031 A 
HETATM    3  C   UNK     0       6.399  -5.231  16.501  0.00  0.00     0.021 A 
HETATM    4  N   UNK     0       5.947  -6.389  15.964  0.00  0.00    -0.361 N 
HETATM    5  C   UNK     0       6.995  -7.033  15.410  0.00  0.00     0.022 A 
HETATM    6  C   UNK     0       8.149  -6.280  15.600  0.00  0.00    -0.027 A 
HETATM    7  C   UNK     0       7.021  -8.300  14.613  0.00  0.00     0.115 C 
HETATM    8  C   UNK     0       5.921  -8.478  13.581  0.00  0.00     0.021 A 
HETATM    9  N   UNK     0       5.339  -7.547  12.810  0.00  0.00    -0.361 N 
HETATM   10  C   UNK     0       4.350  -8.141  12.109  0.00  0.00     0.022 A 
HETATM   11  C   UNK     0       4.299  -9.494  12.432  0.00  0.00    -0.027 A 
HETATM   12  C   UNK     0       5.286  -9.713  13.358  0.00  0.00    -0.031 A 
HETATM   13  C   UNK     0       5.607 -11.047  13.994  0.00  0.00     0.051 C 
HETATM   14  C   UNK     0       3.382  -7.450  11.153  0.00  0.00     0.115 C 
HETATM   15  C   UNK     0       2.528  -6.378  11.810  0.00  0.00     0.021 A 
HETATM   16  N   UNK     0       2.948  -5.277  12.461  0.00  0.00    -0.361 N 
HETATM   17  C   UNK     0       1.890  -4.628  12.953  0.00  0.00     0.022 A 
HETATM   18  C   UNK     0       0.724  -5.334  12.596  0.00  0.00    -0.027 A 
HETATM   19  C   UNK     0       1.137  -6.427  11.880  0.00  0.00    -0.031 A 
HETATM   20  C   UNK     0       0.189  -7.444  11.270  0.00  0.00     0.051 C 
HETATM   21  C   UNK     0       1.825  -3.387  13.814  0.00  0.00     0.115 C 
HETATM   22  C   UNK     0       2.936  -3.175  14.816  0.00  0.00     0.022 A 
HETATM   23  N   UNK     0       3.537  -4.084  15.594  0.00  0.00    -0.361 N 
HETATM   24  C   UNK     0       4.569  -3.487  16.224  0.00  0.00     0.021 A 
HETATM   25  C   UNK     0       4.628  -2.158  15.849  0.00  0.00    -0.031 A 
HETATM   26  C   UNK     0       5.581  -1.077  16.316  0.00  0.00     0.051 C 
HETATM   27  C   UNK     0       3.593  -1.934  14.949  0.00  0.00    -0.027 A 
HETATM   28  C   UNK     0       5.598  -4.130  17.137  0.00  0.00     0.115 C 
HETATM   29  H   UNK     0       4.898  -6.762  16.015  0.00  0.00     0.165 HD
HETATM   30  H   UNK     0       5.657  -6.479  12.720  0.00  0.00     0.165 HD
HETATM   31  H   UNK     0       4.009  -4.924  12.536  0.00  0.00     0.165 HD
HETATM   32  H   UNK     0       3.212  -5.147  15.740  0.00  0.00     0.165 HD
ENDROOT
BRANCH   6  33
HETATM   33  C   UNK     0       9.570  -6.560  15.180  0.00  0.00     0.051 C 
BRANCH  33  34
HETATM   34  C   UNK     0      10.225  -7.537  16.128  0.00  0.00     0.114 C 
BRANCH  34  35
HETATM   35  C   UNK     0      11.634  -7.091  16.326  0.00  0.00     0.139 C 
HETATM   36  O   UNK     0      12.049  -6.030  15.776  0.00  0.00    -0.650 OA
BRANCH  35  37
HETATM   37  O   UNK     0      12.541  -7.798  17.106  0.00  0.00    -0.776 OA
HETATM   38  H   UNK     0      12.367  -8.000  18.077  0.00  0.00     0.167 HD
ENDBRANCH  35  37
ENDBRANCH  34  35
ENDBRANCH  33  34
ENDBRANCH   6  33
BRANCH  27  39
HETATM   39  C   UNK     0       3.292  -0.594  14.377  0.00  0.00     0.051 C 
BRANCH  39  40
HETATM   40  C   UNK     0       2.802   0.450  15.276  0.00  0.00     0.114 C 
BRANCH  40  41
HETATM   41  C   UNK     0       1.422   0.516  15.701  0.00  0.00     0.139 C 
HETATM   42  O   UNK     0       0.464   0.526  14.916  0.00  0.00    -0.650 OA
BRANCH  41  43
HETATM   43  O   UNK     0       1.129   0.574  17.094  0.00  0.00    -0.776 OA
HETATM   44  H   UNK     0       0.905  -0.321  17.512  0.00  0.00     0.167 HD
ENDBRANCH  41  43
ENDBRANCH  40  41
ENDBRANCH  39  40
ENDBRANCH  27  39
BRANCH  11  45
HETATM   45  C   UNK     0       3.372 -10.554  11.901  0.00  0.00     0.051 C 
BRANCH  45  46
HETATM   46  C   UNK     0       3.681 -10.992  10.516  0.00  0.00     0.114 C 
BRANCH  46  47
HETATM   47  C   UNK     0       2.436 -11.587   9.952  0.00  0.00     0.139 C 
HETATM   48  O   UNK     0       2.538 -12.538   9.164  0.00  0.00    -0.650 OA
BRANCH  47  49
HETATM   49  O   UNK     0       1.203 -11.094  10.297  0.00  0.00    -0.776 OA
HETATM   50  H   UNK     0       1.023 -10.668  11.214  0.00  0.00     0.167 HD
ENDBRANCH  47  49
ENDBRANCH  46  47
ENDBRANCH  45  46
ENDBRANCH  11  45
BRANCH  18  51
HETATM   51  C   UNK     0      -0.707  -4.975  12.903  0.00  0.00     0.051 C 
BRANCH  51  52
HETATM   52  C   UNK     0      -1.279  -6.144  13.691  0.00  0.00     0.114 C 
BRANCH  52  53
HETATM   53  C   UNK     0      -2.485  -5.758  14.449  0.00  0.00     0.139 C 
HETATM   54  O   UNK     0      -2.638  -4.583  14.817  0.00  0.00    -0.650 OA
BRANCH  53  55
HETATM   55  O   UNK     0      -3.433  -6.707  14.748  0.00  0.00    -0.776 OA
HETATM   56  H   UNK     0      -3.333  -7.446  15.403  0.00  0.00     0.167 HD
ENDBRANCH  53  55
ENDBRANCH  52  53
ENDBRANCH  51  52
ENDBRANCH  18  51
TORSDOF 16
ENDMDL
MODEL 20
REMARK VINA RESULT:      -8.9      3.338      4.647
REMARK  16 active torsions:
REMARK  status: ('A' for Active; 'I' for Inactive)
REMARK    1  A    between atoms: C_6  and  C_7 
REMARK    2  A    between atoms: C_7  and  C_8 
REMARK    3  A    between atoms: C_8  and  C_9 
REMARK    4  A    between atoms: C_9  and  O_11 
REMARK    5  A    between atoms: C_16  and  C_17 
REMARK    6  A    between atoms: C_17  and  C_18 
REMARK    7  A    between atoms: C_18  and  C_19 
REMARK    8  A    between atoms: C_19  and  O_21 
REMARK    9  A    between atoms: C_28  and  C_29 
REMARK   10  A    between atoms: C_29  and  C_30 
REMARK   11  A    between atoms: C_30  and  C_31 
REMARK   12  A    between atoms: C_31  and  O_33 
REMARK   13  A    between atoms: C_42  and  C_43 
REMARK   14  A    between atoms: C_43  and  C_44 
REMARK   15  A    between atoms: C_44  and  C_45 
REMARK   16  A    between atoms: C_45  and  O_47 
ROOT
HETATM    1  C   UNK     0       2.724 -10.668  10.059  0.00  0.00     0.051 C 
HETATM    2  C   UNK     0       4.197 -10.911  10.316  0.00  0.00    -0.031 A 
HETATM    3  C   UNK     0       5.197 -10.004  10.629  0.00  0.00     0.021 A 
HETATM    4  N   UNK     0       6.374 -10.665  10.741  0.00  0.00    -0.361 N 
HETATM    5  C   UNK     0       6.144 -11.974  10.514  0.00  0.00     0.022 A 
HETATM    6  C   UNK     0       4.793 -12.163  10.242  0.00  0.00    -0.027 A 
HETATM    7  C   UNK     0       7.084 -13.136  10.607  0.00  0.00     0.115 C 
HETATM    8  C   UNK     0       8.031 -13.152  11.794  0.00  0.00     0.021 A 
HETATM    9  N   UNK     0       7.806 -12.733  13.049  0.00  0.00    -0.361 N 
HETATM   10  C   UNK     0       8.958 -12.852  13.743  0.00  0.00     0.022 A 
HETATM   11  C   UNK     0       9.949 -13.371  12.915  0.00  0.00    -0.027 A 
HETATM   12  C   UNK     0       9.372 -13.563  11.686  0.00  0.00    -0.031 A 
HETATM   13  C   UNK     0      10.074 -14.118  10.468  0.00  0.00     0.051 C 
HETATM   14  C   UNK     0       9.183 -12.434  15.194  0.00  0.00     0.115 C 
HETATM   15  C   UNK     0       8.966 -10.951  15.447  0.00  0.00     0.021 A 
HETATM   16  N   UNK     0       7.846 -10.236  15.230  0.00  0.00    -0.361 N 
HETATM   17  C   UNK     0       8.082  -8.953  15.514  0.00  0.00     0.022 A 
HETATM   18  C   UNK     0       9.417  -8.828  15.947  0.00  0.00    -0.027 A 
HETATM   19  C   UNK     0       9.959 -10.086  15.901  0.00  0.00    -0.031 A 
HETATM   20  C   UNK     0      11.381 -10.408  16.324  0.00  0.00     0.051 C 
HETATM   21  C   UNK     0       7.185  -7.745  15.371  0.00  0.00     0.115 C 
HETATM   22  C   UNK     0       6.207  -7.735  14.220  0.00  0.00     0.022 A 
HETATM   23  N   UNK     0       6.402  -8.149  12.961  0.00  0.00    -0.361 N 
HETATM   24  C   UNK     0       5.223  -8.095  12.310  0.00  0.00     0.021 A 
HETATM   25  C   UNK     0       4.247  -7.624  13.167  0.00  0.00    -0.031 A 
HETATM   26  C   UNK     0       2.783  -7.353  12.888  0.00  0.00     0.051 C 
HETATM   27  C   UNK     0       4.852  -7.386  14.395  0.00  0.00    -0.027 A 
HETATM   28  C   UNK     0       4.922  -8.550  10.892  0.00  0.00     0.115 C 
HETATM   29  H   UNK     0       7.365 -10.195  10.940  0.00  0.00     0.165 HD
HETATM   30  H   UNK     0       6.823 -12.400  13.462  0.00  0.00     0.165 HD
HETATM   31  H   UNK     0       6.853 -10.652  14.915  0.00  0.00     0.165 HD
HETATM   32  H   UNK     0       7.384  -8.444  12.508  0.00  0.00     0.165 HD
ENDROOT
BRANCH   6  33
HETATM   33  C   UNK     0       4.036 -13.427   9.920  0.00  0.00     0.051 C 
BRANCH  33  34
HETATM   34  C   UNK     0       4.165 -13.768   8.454  0.00  0.00     0.114 C 
BRANCH  34  35
HETATM   35  C   UNK     0       2.855 -14.324   8.009  0.00  0.00     0.139 C 
HETATM   36  O   UNK     0       1.843 -14.256   8.765  0.00  0.00    -0.650 OA
BRANCH  35  37
HETATM   37  O   UNK     0       2.680 -14.930   6.770  0.00  0.00    -0.776 OA
HETATM   38  H   UNK     0       3.459 -15.186   6.186  0.00  0.00     0.167 HD
ENDBRANCH  35  37
ENDBRANCH  34  35
ENDBRANCH  33  34
ENDBRANCH   6  33
BRANCH  27  39
HETATM   39  C   UNK     0       4.128  -6.802  15.557  0.00  0.00     0.051 C 
BRANCH  39  40
HETATM   40  C   UNK     0       4.302  -5.378  15.838  0.00  0.00     0.114 C 
BRANCH  40  41
HETATM   41  C   UNK     0       3.650  -4.352  15.056  0.00  0.00     0.139 C 
HETATM   42  O   UNK     0       2.613  -3.777  15.412  0.00  0.00    -0.650 OA
BRANCH  41  43
HETATM   43  O   UNK     0       4.217  -3.971  13.806  0.00  0.00    -0.776 OA
HETATM   44  H   UNK     0       5.216  -4.120  13.737  0.00  0.00     0.167 HD
ENDBRANCH  41  43
ENDBRANCH  40  41
ENDBRANCH  39  40
ENDBRANCH  27  39
BRANCH  11  45
HETATM   45  C   UNK     0      11.384 -13.684  13.246  0.00  0.00     0.051 C 
BRANCH  45  46
HETATM   46  C   UNK     0      12.292 -12.512  13.171  0.00  0.00     0.114 C 
BRANCH  46  47
HETATM   47  C   UNK     0      13.379 -12.856  12.209  0.00  0.00     0.139 C 
HETATM   48  O   UNK     0      13.366 -13.975  11.678  0.00  0.00    -0.650 OA
BRANCH  47  49
HETATM   49  O   UNK     0      14.372 -11.955  11.918  0.00  0.00    -0.776 OA
HETATM   50  H   UNK     0      14.235 -11.192  11.245  0.00  0.00     0.167 HD
ENDBRANCH  47  49
ENDBRANCH  46  47
ENDBRANCH  45  46
ENDBRANCH  11  45
BRANCH  18  51
HETATM   51  C   UNK     0      10.131  -7.580  16.398  0.00  0.00     0.051 C 
BRANCH  51  52
HETATM   52  C   UNK     0      11.163  -7.268  15.325  0.00  0.00     0.114 C 
BRANCH  52  53
HETATM   53  C   UNK     0      12.448  -6.835  15.908  0.00  0.00     0.139 C 
HETATM   54  O   UNK     0      13.333  -6.359  15.178  0.00  0.00    -0.650 OA
BRANCH  53  55
HETATM   55  O   UNK     0      12.659  -6.964  17.259  0.00  0.00    -0.776 OA
HETATM   56  H   UNK     0      13.394  -6.544  17.778  0.00  0.00     0.167 HD
ENDBRANCH  53  55
ENDBRANCH  52  53
ENDBRANCH  51  52
ENDBRANCH  18  51
TORSDOF 16
ENDMDL
