MODEL 1
REMARK VINA RESULT:      -7.9      0.000      0.000
REMARK  16 active torsions:
REMARK  status: ('A' for Active; 'I' for Inactive)
REMARK    1  A    between atoms: C_6  and  C_7 
REMARK    2  A    between atoms: C_7  and  C_8 
REMARK    3  A    between atoms: C_8  and  C_9 
REMARK    4  A    between atoms: C_9  and  O_11 
REMARK    5  A    between atoms: C_16  and  C_17 
REMARK    6  A    between atoms: C_17  and  C_18 
REMARK    7  A    between atoms: C_18  and  C_19 
REMARK    8  A    between atoms: C_19  and  O_21 
REMARK    9  A    between atoms: C_28  and  C_29 
REMARK   10  A    between atoms: C_29  and  C_30 
REMARK   11  A    between atoms: C_30  and  C_31 
REMARK   12  A    between atoms: C_31  and  O_33 
REMARK   13  A    between atoms: C_42  and  C_43 
REMARK   14  A    between atoms: C_43  and  C_44 
REMARK   15  A    between atoms: C_44  and  C_45 
REMARK   16  A    between atoms: C_45  and  O_47 
ROOT
HETATM    1  C   UNK     0     -14.759   3.826   8.156  0.00  0.00     0.051 C 
HETATM    2  C   UNK     0     -14.881   4.946   7.143  0.00  0.00    -0.031 A 
HETATM    3  C   UNK     0     -13.932   5.871   6.735  0.00  0.00     0.021 A 
HETATM    4  N   UNK     0     -14.493   6.709   5.831  0.00  0.00    -0.361 N 
HETATM    5  C   UNK     0     -15.775   6.333   5.647  0.00  0.00     0.022 A 
HETATM    6  C   UNK     0     -16.052   5.235   6.455  0.00  0.00    -0.027 A 
HETATM    7  C   UNK     0     -16.796   6.866   4.691  0.00  0.00     0.115 C 
HETATM    8  C   UNK     0     -16.319   7.164   3.281  0.00  0.00     0.021 A 
HETATM    9  N   UNK     0     -15.410   6.503   2.548  0.00  0.00    -0.361 N 
HETATM   10  C   UNK     0     -15.233   7.175   1.391  0.00  0.00     0.022 A 
HETATM   11  C   UNK     0     -16.058   8.296   1.374  0.00  0.00    -0.027 A 
HETATM   12  C   UNK     0     -16.745   8.295   2.561  0.00  0.00    -0.031 A 
HETATM   13  C   UNK     0     -17.765   9.329   2.982  0.00  0.00     0.051 C 
HETATM   14  C   UNK     0     -14.246   6.820   0.283  0.00  0.00     0.115 C 
HETATM   15  C   UNK     0     -12.792   6.830   0.728  0.00  0.00     0.021 A 
HETATM   16  N   UNK     0     -12.228   6.100   1.708  0.00  0.00    -0.361 N 
HETATM   17  C   UNK     0     -10.946   6.451   1.833  0.00  0.00     0.022 A 
HETATM   18  C   UNK     0     -10.659   7.450   0.883  0.00  0.00    -0.027 A 
HETATM   19  C   UNK     0     -11.823   7.678   0.196  0.00  0.00    -0.031 A 
HETATM   20  C   UNK     0     -11.947   8.664  -0.951  0.00  0.00     0.051 C 
HETATM   21  C   UNK     0      -9.904   5.986   2.825  0.00  0.00     0.115 C 
HETATM   22  C   UNK     0     -10.372   5.644   4.220  0.00  0.00     0.022 A 
HETATM   23  N   UNK     0     -11.278   6.282   4.971  0.00  0.00    -0.361 N 
HETATM   24  C   UNK     0     -11.495   5.553   6.084  0.00  0.00     0.021 A 
HETATM   25  C   UNK     0     -10.701   4.422   6.054  0.00  0.00    -0.031 A 
HETATM   26  C   UNK     0     -10.563   3.326   7.090  0.00  0.00     0.051 C 
HETATM   27  C   UNK     0      -9.973   4.458   4.870  0.00  0.00    -0.027 A 
HETATM   28  C   UNK     0     -12.501   5.821   7.190  0.00  0.00     0.115 C 
HETATM   29  H   UNK     0     -13.990   7.584   5.359  0.00  0.00     0.165 HD
HETATM   30  H   UNK     0     -14.927   5.533   2.824  0.00  0.00     0.165 HD
HETATM   31  H   UNK     0     -12.731   5.286   2.292  0.00  0.00     0.165 HD
HETATM   32  H   UNK     0     -11.742   7.277   4.743  0.00  0.00     0.165 HD
ENDROOT
BRANCH   6  33
HETATM   33  C   UNK     0     -17.329   4.451   6.622  0.00  0.00     0.051 C 
BRANCH  33  34
HETATM   34  C   UNK     0     -17.345   3.251   5.705  0.00  0.00     0.114 C 
BRANCH  34  35
HETATM   35  C   UNK     0     -17.536   2.041   6.555  0.00  0.00     0.139 C 
HETATM   36  O   UNK     0     -18.319   2.078   7.548  0.00  0.00    -0.650 OA
BRANCH  35  37
HETATM   37  O   UNK     0     -16.884   0.840   6.306  0.00  0.00    -0.776 OA
HETATM   38  H   UNK     0     -16.850   0.099   6.988  0.00  0.00     0.167 HD
ENDBRANCH  35  37
ENDBRANCH  34  35
ENDBRANCH  33  34
ENDBRANCH   6  33
BRANCH  27  39
HETATM   39  C   UNK     0      -8.951   3.436   4.516  0.00  0.00     0.051 C 
BRANCH  39  40
HETATM   40  C   UNK     0      -7.575   3.647   4.964  0.00  0.00     0.114 C 
BRANCH  40  41
HETATM   41  C   UNK     0      -7.029   2.974   6.121  0.00  0.00     0.139 C 
HETATM   42  O   UNK     0      -6.206   3.491   6.888  0.00  0.00    -0.650 OA
BRANCH  41  43
HETATM   43  O   UNK     0      -7.449   1.644   6.408  0.00  0.00    -0.776 OA
HETATM   44  H   UNK     0      -8.350   1.579   6.866  0.00  0.00     0.167 HD
ENDBRANCH  41  43
ENDBRANCH  40  41
ENDBRANCH  39  40
ENDBRANCH  27  39
BRANCH  11  45
HETATM   45  C   UNK     0     -16.213   9.335   0.296  0.00  0.00     0.051 C 
BRANCH  45  46
HETATM   46  C   UNK     0     -17.046   8.898  -0.853  0.00  0.00     0.114 C 
BRANCH  46  47
HETATM   47  C   UNK     0     -18.128   9.910  -1.024  0.00  0.00     0.139 C 
HETATM   48  O   UNK     0     -18.254  10.793  -0.165  0.00  0.00    -0.650 OA
BRANCH  47  49
HETATM   49  O   UNK     0     -18.967   9.864  -2.109  0.00  0.00    -0.776 OA
HETATM   50  H   UNK     0     -18.613   9.780  -3.069  0.00  0.00     0.167 HD
ENDBRANCH  47  49
ENDBRANCH  46  47
ENDBRANCH  45  46
ENDBRANCH  11  45
BRANCH  18  51
HETATM   51  C   UNK     0      -9.342   8.136   0.629  0.00  0.00     0.051 C 
BRANCH  51  52
HETATM   52  C   UNK     0      -8.692   7.395  -0.530  0.00  0.00     0.114 C 
BRANCH  52  53
HETATM   53  C   UNK     0      -8.089   8.323  -1.507  0.00  0.00     0.139 C 
HETATM   54  O   UNK     0      -7.661   9.427  -1.133  0.00  0.00    -0.650 OA
BRANCH  53  55
HETATM   55  O   UNK     0      -8.006   7.959  -2.829  0.00  0.00    -0.776 OA
HETATM   56  H   UNK     0      -7.838   8.570  -3.593  0.00  0.00     0.167 HD
ENDBRANCH  53  55
ENDBRANCH  52  53
ENDBRANCH  51  52
ENDBRANCH  18  51
TORSDOF 16
ENDMDL
MODEL 2
REMARK VINA RESULT:      -7.8      1.456      1.757
REMARK  16 active torsions:
REMARK  status: ('A' for Active; 'I' for Inactive)
REMARK    1  A    between atoms: C_6  and  C_7 
REMARK    2  A    between atoms: C_7  and  C_8 
REMARK    3  A    between atoms: C_8  and  C_9 
REMARK    4  A    between atoms: C_9  and  O_11 
REMARK    5  A    between atoms: C_16  and  C_17 
REMARK    6  A    between atoms: C_17  and  C_18 
REMARK    7  A    between atoms: C_18  and  C_19 
REMARK    8  A    between atoms: C_19  and  O_21 
REMARK    9  A    between atoms: C_28  and  C_29 
REMARK   10  A    between atoms: C_29  and  C_30 
REMARK   11  A    between atoms: C_30  and  C_31 
REMARK   12  A    between atoms: C_31  and  O_33 
REMARK   13  A    between atoms: C_42  and  C_43 
REMARK   14  A    between atoms: C_43  and  C_44 
REMARK   15  A    between atoms: C_44  and  C_45 
REMARK   16  A    between atoms: C_45  and  O_47 
ROOT
HETATM    1  C   UNK     0     -14.185   3.742   8.367  0.00  0.00     0.051 C 
HETATM    2  C   UNK     0     -14.429   4.882   7.400  0.00  0.00    -0.031 A 
HETATM    3  C   UNK     0     -13.534   5.810   6.891  0.00  0.00     0.021 A 
HETATM    4  N   UNK     0     -14.201   6.668   6.082  0.00  0.00    -0.361 N 
HETATM    5  C   UNK     0     -15.499   6.301   6.058  0.00  0.00     0.022 A 
HETATM    6  C   UNK     0     -15.677   5.189   6.874  0.00  0.00    -0.027 A 
HETATM    7  C   UNK     0     -16.631   6.858   5.252  0.00  0.00     0.115 C 
HETATM    8  C   UNK     0     -16.337   7.182   3.798  0.00  0.00     0.021 A 
HETATM    9  N   UNK     0     -15.535   6.530   2.942  0.00  0.00    -0.361 N 
HETATM   10  C   UNK     0     -15.504   7.225   1.785  0.00  0.00     0.022 A 
HETATM   11  C   UNK     0     -16.317   8.349   1.895  0.00  0.00    -0.027 A 
HETATM   12  C   UNK     0     -16.845   8.328   3.161  0.00  0.00    -0.031 A 
HETATM   13  C   UNK     0     -17.796   9.358   3.729  0.00  0.00     0.051 C 
HETATM   14  C   UNK     0     -14.670   6.887   0.552  0.00  0.00     0.115 C 
HETATM   15  C   UNK     0     -13.171   6.882   0.806  0.00  0.00     0.021 A 
HETATM   16  N   UNK     0     -12.490   6.130   1.691  0.00  0.00    -0.361 N 
HETATM   17  C   UNK     0     -11.201   6.473   1.656  0.00  0.00     0.022 A 
HETATM   18  C   UNK     0     -11.031   7.490   0.696  0.00  0.00    -0.027 A 
HETATM   19  C   UNK     0     -12.273   7.736   0.169  0.00  0.00    -0.031 A 
HETATM   20  C   UNK     0     -12.537   8.745  -0.934  0.00  0.00     0.051 C 
HETATM   21  C   UNK     0     -10.042   5.985   2.497  0.00  0.00     0.115 C 
HETATM   22  C   UNK     0     -10.329   5.617   3.933  0.00  0.00     0.022 A 
HETATM   23  N   UNK     0     -11.127   6.245   4.807  0.00  0.00    -0.361 N 
HETATM   24  C   UNK     0     -11.203   5.495   5.925  0.00  0.00     0.021 A 
HETATM   25  C   UNK     0     -10.428   4.361   5.771  0.00  0.00    -0.031 A 
HETATM   26  C   UNK     0     -10.165   3.245   6.760  0.00  0.00     0.051 C 
HETATM   27  C   UNK     0      -9.858   4.417   4.504  0.00  0.00    -0.027 A 
HETATM   28  C   UNK     0     -12.057   5.746   7.156  0.00  0.00     0.115 C 
HETATM   29  H   UNK     0     -13.757   7.551   5.566  0.00  0.00     0.165 HD
HETATM   30  H   UNK     0     -15.027   5.553   3.134  0.00  0.00     0.165 HD
HETATM   31  H   UNK     0     -12.920   5.307   2.319  0.00  0.00     0.165 HD
HETATM   32  H   UNK     0     -11.609   7.246   4.660  0.00  0.00     0.165 HD
ENDROOT
BRANCH   6  33
HETATM   33  C   UNK     0     -16.927   4.407   7.190  0.00  0.00     0.051 C 
BRANCH  33  34
HETATM   34  C   UNK     0     -17.235   3.423   6.087  0.00  0.00     0.114 C 
BRANCH  34  35
HETATM   35  C   UNK     0     -17.566   2.120   6.731  0.00  0.00     0.139 C 
HETATM   36  O   UNK     0     -17.027   1.051   6.321  0.00  0.00    -0.650 OA
BRANCH  35  37
HETATM   37  O   UNK     0     -18.459   2.013   7.791  0.00  0.00    -0.776 OA
HETATM   38  H   UNK     0     -18.464   1.216   8.407  0.00  0.00     0.167 HD
ENDBRANCH  35  37
ENDBRANCH  34  35
ENDBRANCH  33  34
ENDBRANCH   6  33
BRANCH  27  39
HETATM   39  C   UNK     0      -8.897   3.398   4.002  0.00  0.00     0.051 C 
BRANCH  39  40
HETATM   40  C   UNK     0      -9.357   2.450   2.989  0.00  0.00     0.114 C 
BRANCH  40  41
HETATM   41  C   UNK     0      -9.104   2.645   1.579  0.00  0.00     0.139 C 
HETATM   42  O   UNK     0      -9.431   1.829   0.706  0.00  0.00    -0.650 OA
BRANCH  41  43
HETATM   43  O   UNK     0      -8.444   3.833   1.153  0.00  0.00    -0.776 OA
HETATM   44  H   UNK     0      -8.966   4.385   0.482  0.00  0.00     0.167 HD
ENDBRANCH  41  43
ENDBRANCH  40  41
ENDBRANCH  39  40
ENDBRANCH  27  39
BRANCH  11  45
HETATM   45  C   UNK     0     -16.602   9.410   0.866  0.00  0.00     0.051 C 
BRANCH  45  46
HETATM   46  C   UNK     0     -17.731   9.086  -0.043  0.00  0.00     0.114 C 
BRANCH  46  47
HETATM   47  C   UNK     0     -18.805  10.088   0.212  0.00  0.00     0.139 C 
HETATM   48  O   UNK     0     -18.492  11.177   0.713  0.00  0.00    -0.650 OA
BRANCH  47  49
HETATM   49  O   UNK     0     -20.112   9.811  -0.100  0.00  0.00    -0.776 OA
HETATM   50  H   UNK     0     -20.807  10.554  -0.244  0.00  0.00     0.167 HD
ENDBRANCH  47  49
ENDBRANCH  46  47
ENDBRANCH  45  46
ENDBRANCH  11  45
BRANCH  18  51
HETATM   51  C   UNK     0      -9.753   8.175   0.287  0.00  0.00     0.051 C 
BRANCH  51  52
HETATM   52  C   UNK     0      -9.128   7.302  -0.791  0.00  0.00     0.114 C 
BRANCH  52  53
HETATM   53  C   UNK     0      -7.977   7.964  -1.435  0.00  0.00     0.139 C 
HETATM   54  O   UNK     0      -7.063   8.437  -0.740  0.00  0.00    -0.650 OA
BRANCH  53  55
HETATM   55  O   UNK     0      -7.926   8.057  -2.805  0.00  0.00    -0.776 OA
HETATM   56  H   UNK     0      -8.089   8.877  -3.341  0.00  0.00     0.167 HD
ENDBRANCH  53  55
ENDBRANCH  52  53
ENDBRANCH  51  52
ENDBRANCH  18  51
TORSDOF 16
ENDMDL
MODEL 3
REMARK VINA RESULT:      -7.8     12.880     19.664
REMARK  16 active torsions:
REMARK  status: ('A' for Active; 'I' for Inactive)
REMARK    1  A    between atoms: C_6  and  C_7 
REMARK    2  A    between atoms: C_7  and  C_8 
REMARK    3  A    between atoms: C_8  and  C_9 
REMARK    4  A    between atoms: C_9  and  O_11 
REMARK    5  A    between atoms: C_16  and  C_17 
REMARK    6  A    between atoms: C_17  and  C_18 
REMARK    7  A    between atoms: C_18  and  C_19 
REMARK    8  A    between atoms: C_19  and  O_21 
REMARK    9  A    between atoms: C_28  and  C_29 
REMARK   10  A    between atoms: C_29  and  C_30 
REMARK   11  A    between atoms: C_30  and  C_31 
REMARK   12  A    between atoms: C_31  and  O_33 
REMARK   13  A    between atoms: C_42  and  C_43 
REMARK   14  A    between atoms: C_43  and  C_44 
REMARK   15  A    between atoms: C_44  and  C_45 
REMARK   16  A    between atoms: C_45  and  O_47 
ROOT
HETATM    1  C   UNK     0     -26.645  17.147 -11.703  0.00  0.00     0.051 C 
HETATM    2  C   UNK     0     -25.385  16.608 -11.057  0.00  0.00    -0.031 A 
HETATM    3  C   UNK     0     -24.933  16.753  -9.754  0.00  0.00     0.021 A 
HETATM    4  N   UNK     0     -23.739  16.127  -9.629  0.00  0.00    -0.361 N 
HETATM    5  C   UNK     0     -23.424  15.579 -10.821  0.00  0.00     0.022 A 
HETATM    6  C   UNK     0     -24.431  15.863 -11.738  0.00  0.00    -0.027 A 
HETATM    7  C   UNK     0     -22.265  14.707 -11.192  0.00  0.00     0.115 C 
HETATM    8  C   UNK     0     -21.885  13.620 -10.201  0.00  0.00     0.021 A 
HETATM    9  N   UNK     0     -22.689  12.884  -9.419  0.00  0.00    -0.361 N 
HETATM   10  C   UNK     0     -21.914  12.108  -8.633  0.00  0.00     0.022 A 
HETATM   11  C   UNK     0     -20.573  12.343  -8.924  0.00  0.00    -0.027 A 
HETATM   12  C   UNK     0     -20.548  13.295  -9.911  0.00  0.00    -0.031 A 
HETATM   13  C   UNK     0     -19.299  13.860 -10.549  0.00  0.00     0.051 C 
HETATM   14  C   UNK     0     -22.401  11.156  -7.544  0.00  0.00     0.115 C 
HETATM   15  C   UNK     0     -23.170  11.841  -6.427  0.00  0.00     0.021 A 
HETATM   16  N   UNK     0     -24.293  12.576  -6.533  0.00  0.00    -0.361 N 
HETATM   17  C   UNK     0     -24.615  13.062  -5.332  0.00  0.00     0.022 A 
HETATM   18  C   UNK     0     -23.661  12.614  -4.396  0.00  0.00    -0.027 A 
HETATM   19  C   UNK     0     -22.763  11.849  -5.094  0.00  0.00    -0.031 A 
HETATM   20  C   UNK     0     -21.584  11.138  -4.455  0.00  0.00     0.051 C 
HETATM   21  C   UNK     0     -25.734  13.995  -4.929  0.00  0.00     0.115 C 
HETATM   22  C   UNK     0     -26.151  15.053  -5.923  0.00  0.00     0.022 A 
HETATM   23  N   UNK     0     -25.373  15.799  -6.718  0.00  0.00    -0.361 N 
HETATM   24  C   UNK     0     -26.167  16.507  -7.545  0.00  0.00     0.021 A 
HETATM   25  C   UNK     0     -27.490  16.218  -7.269  0.00  0.00    -0.031 A 
HETATM   26  C   UNK     0     -28.742  16.791  -7.900  0.00  0.00     0.051 C 
HETATM   27  C   UNK     0     -27.505  15.291  -6.234  0.00  0.00    -0.027 A 
HETATM   28  C   UNK     0     -25.745  17.422  -8.682  0.00  0.00     0.115 C 
HETATM   29  H   UNK     0     -23.108  16.110  -8.711  0.00  0.00     0.165 HD
HETATM   30  H   UNK     0     -23.806  12.874  -9.453  0.00  0.00     0.165 HD
HETATM   31  H   UNK     0     -24.898  12.717  -7.466  0.00  0.00     0.165 HD
HETATM   32  H   UNK     0     -24.254  15.865  -6.673  0.00  0.00     0.165 HD
ENDROOT
BRANCH   6  33
HETATM   33  C   UNK     0     -24.553  15.487 -13.193  0.00  0.00     0.051 C 
BRANCH  33  34
HETATM   34  C   UNK     0     -23.807  16.470 -14.063  0.00  0.00     0.114 C 
BRANCH  34  35
HETATM   35  C   UNK     0     -22.955  15.682 -14.999  0.00  0.00     0.139 C 
HETATM   36  O   UNK     0     -22.440  16.237 -16.013  0.00  0.00    -0.650 OA
BRANCH  35  37
HETATM   37  O   UNK     0     -22.688  14.331 -14.812  0.00  0.00    -0.776 OA
HETATM   38  H   UNK     0     -21.971  14.011 -14.180  0.00  0.00     0.167 HD
ENDBRANCH  35  37
ENDBRANCH  34  35
ENDBRANCH  33  34
ENDBRANCH   6  33
BRANCH  27  39
HETATM   39  C   UNK     0     -28.762  14.790  -5.612  0.00  0.00     0.051 C 
BRANCH  39  40
HETATM   40  C   UNK     0     -28.705  13.555  -4.832  0.00  0.00     0.114 C 
BRANCH  40  41
HETATM   41  C   UNK     0     -29.663  12.487  -5.009  0.00  0.00     0.139 C 
HETATM   42  O   UNK     0     -30.833  12.544  -4.607  0.00  0.00    -0.650 OA
BRANCH  41  43
HETATM   43  O   UNK     0     -29.257  11.298  -5.680  0.00  0.00    -0.776 OA
HETATM   44  H   UNK     0     -28.852  11.452  -6.596  0.00  0.00     0.167 HD
ENDBRANCH  41  43
ENDBRANCH  40  41
ENDBRANCH  39  40
ENDBRANCH  27  39
BRANCH  11  45
HETATM   45  C   UNK     0     -19.352  11.709  -8.315  0.00  0.00     0.051 C 
BRANCH  45  46
HETATM   46  C   UNK     0     -18.949  12.299  -7.012  0.00  0.00     0.114 C 
BRANCH  46  47
HETATM   47  C   UNK     0     -18.314  11.212  -6.213  0.00  0.00     0.139 C 
HETATM   48  O   UNK     0     -18.046  11.431  -5.023  0.00  0.00    -0.650 OA
BRANCH  47  49
HETATM   49  O   UNK     0     -18.030   9.996  -6.781  0.00  0.00    -0.776 OA
HETATM   50  H   UNK     0     -17.236   9.422  -6.472  0.00  0.00     0.167 HD
ENDBRANCH  47  49
ENDBRANCH  46  47
ENDBRANCH  45  46
ENDBRANCH  11  45
BRANCH  18  51
HETATM   51  C   UNK     0     -23.620  12.882  -2.914  0.00  0.00     0.051 C 
BRANCH  51  52
HETATM   52  C   UNK     0     -24.536  11.852  -2.269  0.00  0.00     0.114 C 
BRANCH  52  53
HETATM   53  C   UNK     0     -23.792  10.660  -1.819  0.00  0.00     0.139 C 
HETATM   54  O   UNK     0     -22.984  10.750  -0.881  0.00  0.00    -0.650 OA
BRANCH  53  55
HETATM   55  O   UNK     0     -23.996   9.455  -2.445  0.00  0.00    -0.776 OA
HETATM   56  H   UNK     0     -23.306   8.917  -2.915  0.00  0.00     0.167 HD
ENDBRANCH  53  55
ENDBRANCH  52  53
ENDBRANCH  51  52
ENDBRANCH  18  51
TORSDOF 16
ENDMDL
MODEL 4
REMARK VINA RESULT:      -7.6      2.733      7.907
REMARK  16 active torsions:
REMARK  status: ('A' for Active; 'I' for Inactive)
REMARK    1  A    between atoms: C_6  and  C_7 
REMARK    2  A    between atoms: C_7  and  C_8 
REMARK    3  A    between atoms: C_8  and  C_9 
REMARK    4  A    between atoms: C_9  and  O_11 
REMARK    5  A    between atoms: C_16  and  C_17 
REMARK    6  A    between atoms: C_17  and  C_18 
REMARK    7  A    between atoms: C_18  and  C_19 
REMARK    8  A    between atoms: C_19  and  O_21 
REMARK    9  A    between atoms: C_28  and  C_29 
REMARK   10  A    between atoms: C_29  and  C_30 
REMARK   11  A    between atoms: C_30  and  C_31 
REMARK   12  A    between atoms: C_31  and  O_33 
REMARK   13  A    between atoms: C_42  and  C_43 
REMARK   14  A    between atoms: C_43  and  C_44 
REMARK   15  A    between atoms: C_44  and  C_45 
REMARK   16  A    between atoms: C_45  and  O_47 
ROOT
HETATM    1  C   UNK     0      -7.788   7.497  -1.198  0.00  0.00     0.051 C 
HETATM    2  C   UNK     0      -9.002   7.060  -0.404  0.00  0.00    -0.031 A 
HETATM    3  C   UNK     0      -9.172   5.946   0.402  0.00  0.00     0.021 A 
HETATM    4  N   UNK     0     -10.435   5.943   0.890  0.00  0.00    -0.361 N 
HETATM    5  C   UNK     0     -11.071   7.036   0.420  0.00  0.00     0.022 A 
HETATM    6  C   UNK     0     -10.205   7.755  -0.396  0.00  0.00    -0.027 A 
HETATM    7  C   UNK     0     -12.444   7.546   0.730  0.00  0.00     0.115 C 
HETATM    8  C   UNK     0     -12.877   7.494   2.184  0.00  0.00     0.021 A 
HETATM    9  N   UNK     0     -12.134   7.686   3.286  0.00  0.00    -0.361 N 
HETATM   10  C   UNK     0     -12.914   7.452   4.363  0.00  0.00     0.022 A 
HETATM   11  C   UNK     0     -14.196   7.111   3.944  0.00  0.00    -0.027 A 
HETATM   12  C   UNK     0     -14.181   7.136   2.573  0.00  0.00    -0.031 A 
HETATM   13  C   UNK     0     -15.363   6.834   1.679  0.00  0.00     0.051 C 
HETATM   14  C   UNK     0     -12.469   7.490   5.822  0.00  0.00     0.115 C 
HETATM   15  C   UNK     0     -11.380   6.485   6.160  0.00  0.00     0.021 A 
HETATM   16  N   UNK     0     -10.157   6.381   5.606  0.00  0.00    -0.361 N 
HETATM   17  C   UNK     0      -9.527   5.327   6.127  0.00  0.00     0.022 A 
HETATM   18  C   UNK     0     -10.376   4.719   7.074  0.00  0.00    -0.027 A 
HETATM   19  C   UNK     0     -11.533   5.455   7.086  0.00  0.00    -0.031 A 
HETATM   20  C   UNK     0     -12.709   5.163   7.999  0.00  0.00     0.051 C 
HETATM   21  C   UNK     0      -8.173   4.741   5.795  0.00  0.00     0.115 C 
HETATM   22  C   UNK     0      -7.710   4.825   4.360  0.00  0.00     0.022 A 
HETATM   23  N   UNK     0      -8.428   4.643   3.244  0.00  0.00    -0.361 N 
HETATM   24  C   UNK     0      -7.654   4.957   2.186  0.00  0.00     0.021 A 
HETATM   25  C   UNK     0      -6.403   5.339   2.631  0.00  0.00    -0.031 A 
HETATM   26  C   UNK     0      -5.186   5.740   1.824  0.00  0.00     0.051 C 
HETATM   27  C   UNK     0      -6.414   5.263   4.019  0.00  0.00    -0.027 A 
HETATM   28  C   UNK     0      -8.053   4.995   0.721  0.00  0.00     0.115 C 
HETATM   29  H   UNK     0     -10.881   5.148   1.532  0.00  0.00     0.165 HD
HETATM   30  H   UNK     0     -11.073   8.034   3.307  0.00  0.00     0.165 HD
HETATM   31  H   UNK     0      -9.710   7.095   4.866  0.00  0.00     0.165 HD
HETATM   32  H   UNK     0      -9.477   4.250   3.191  0.00  0.00     0.165 HD
ENDROOT
BRANCH   6  33
HETATM   33  C   UNK     0     -10.430   9.036  -1.160  0.00  0.00     0.051 C 
BRANCH  33  34
HETATM   34  C   UNK     0     -11.187   8.769  -2.439  0.00  0.00     0.114 C 
BRANCH  34  35
HETATM   35  C   UNK     0     -10.365   9.300  -3.564  0.00  0.00     0.139 C 
HETATM   36  O   UNK     0      -9.592  10.285  -3.378  0.00  0.00    -0.650 OA
BRANCH  35  37
HETATM   37  O   UNK     0     -10.400   8.754  -4.841  0.00  0.00    -0.776 OA
HETATM   38  H   UNK     0     -11.251   8.403  -5.249  0.00  0.00     0.167 HD
ENDBRANCH  35  37
ENDBRANCH  34  35
ENDBRANCH  33  34
ENDBRANCH   6  33
BRANCH  27  39
HETATM   39  C   UNK     0      -5.214   5.533   4.856  0.00  0.00     0.051 C 
BRANCH  39  40
HETATM   40  C   UNK     0      -4.345   4.410   5.206  0.00  0.00     0.114 C 
BRANCH  40  41
HETATM   41  C   UNK     0      -2.964   4.343   4.783  0.00  0.00     0.139 C 
HETATM   42  O   UNK     0      -2.590   3.754   3.759  0.00  0.00    -0.650 OA
BRANCH  41  43
HETATM   43  O   UNK     0      -1.967   4.983   5.573  0.00  0.00    -0.776 OA
HETATM   44  H   UNK     0      -1.887   5.981   5.420  0.00  0.00     0.167 HD
ENDBRANCH  41  43
ENDBRANCH  40  41
ENDBRANCH  39  40
ENDBRANCH  27  39
BRANCH  11  45
HETATM   45  C   UNK     0     -15.402   6.774   4.780  0.00  0.00     0.051 C 
BRANCH  45  46
HETATM   46  C   UNK     0     -15.494   5.342   5.162  0.00  0.00     0.114 C 
BRANCH  46  47
HETATM   47  C   UNK     0     -16.681   4.774   4.462  0.00  0.00     0.139 C 
HETATM   48  O   UNK     0     -17.639   5.521   4.218  0.00  0.00    -0.650 OA
BRANCH  47  49
HETATM   49  O   UNK     0     -16.716   3.452   4.096  0.00  0.00    -0.776 OA
HETATM   50  H   UNK     0     -16.693   2.694   4.789  0.00  0.00     0.167 HD
ENDBRANCH  47  49
ENDBRANCH  46  47
ENDBRANCH  45  46
ENDBRANCH  11  45
BRANCH  18  51
HETATM   51  C   UNK     0     -10.092   3.516   7.935  0.00  0.00     0.051 C 
BRANCH  51  52
HETATM   52  C   UNK     0     -10.822   2.348   7.290  0.00  0.00     0.114 C 
BRANCH  52  53
HETATM   53  C   UNK     0      -9.958   1.615   6.344  0.00  0.00     0.139 C 
HETATM   54  O   UNK     0     -10.014   1.864   5.130  0.00  0.00    -0.650 OA
BRANCH  53  55
HETATM   55  O   UNK     0      -9.097   0.654   6.816  0.00  0.00    -0.776 OA
HETATM   56  H   UNK     0      -9.292  -0.003   7.535  0.00  0.00     0.167 HD
ENDBRANCH  53  55
ENDBRANCH  52  53
ENDBRANCH  51  52
ENDBRANCH  18  51
TORSDOF 16
ENDMDL
MODEL 5
REMARK VINA RESULT:      -7.5      3.468     10.860
REMARK  16 active torsions:
REMARK  status: ('A' for Active; 'I' for Inactive)
REMARK    1  A    between atoms: C_6  and  C_7 
REMARK    2  A    between atoms: C_7  and  C_8 
REMARK    3  A    between atoms: C_8  and  C_9 
REMARK    4  A    between atoms: C_9  and  O_11 
REMARK    5  A    between atoms: C_16  and  C_17 
REMARK    6  A    between atoms: C_17  and  C_18 
REMARK    7  A    between atoms: C_18  and  C_19 
REMARK    8  A    between atoms: C_19  and  O_21 
REMARK    9  A    between atoms: C_28  and  C_29 
REMARK   10  A    between atoms: C_29  and  C_30 
REMARK   11  A    between atoms: C_30  and  C_31 
REMARK   12  A    between atoms: C_31  and  O_33 
REMARK   13  A    between atoms: C_42  and  C_43 
REMARK   14  A    between atoms: C_43  and  C_44 
REMARK   15  A    between atoms: C_44  and  C_45 
REMARK   16  A    between atoms: C_45  and  O_47 
ROOT
HETATM    1  C   UNK     0     -12.946   6.445   1.389  0.00  0.00     0.051 C 
HETATM    2  C   UNK     0     -11.866   6.224   2.428  0.00  0.00    -0.031 A 
HETATM    3  C   UNK     0     -11.843   6.588   3.765  0.00  0.00     0.021 A 
HETATM    4  N   UNK     0     -10.659   6.214   4.304  0.00  0.00    -0.361 N 
HETATM    5  C   UNK     0      -9.929   5.613   3.342  0.00  0.00     0.022 A 
HETATM    6  C   UNK     0     -10.653   5.604   2.155  0.00  0.00    -0.027 A 
HETATM    7  C   UNK     0      -8.595   4.941   3.439  0.00  0.00     0.115 C 
HETATM    8  C   UNK     0      -8.364   4.056   4.651  0.00  0.00     0.021 A 
HETATM    9  N   UNK     0      -9.242   3.268   5.290  0.00  0.00    -0.361 N 
HETATM   10  C   UNK     0      -8.624   2.738   6.367  0.00  0.00     0.022 A 
HETATM   11  C   UNK     0      -7.308   3.190   6.417  0.00  0.00    -0.027 A 
HETATM   12  C   UNK     0      -7.138   4.020   5.339  0.00  0.00    -0.031 A 
HETATM   13  C   UNK     0      -5.856   4.740   4.984  0.00  0.00     0.051 C 
HETATM   14  C   UNK     0      -9.260   1.831   7.417  0.00  0.00     0.115 C 
HETATM   15  C   UNK     0     -10.418   2.473   8.164  0.00  0.00     0.021 A 
HETATM   16  N   UNK     0     -11.557   2.969   7.645  0.00  0.00    -0.361 N 
HETATM   17  C   UNK     0     -12.287   3.509   8.624  0.00  0.00     0.022 A 
HETATM   18  C   UNK     0     -11.594   3.349   9.841  0.00  0.00    -0.027 A 
HETATM   19  C   UNK     0     -10.426   2.698   9.539  0.00  0.00    -0.031 A 
HETATM   20  C   UNK     0      -9.394   2.293  10.576  0.00  0.00     0.051 C 
HETATM   21  C   UNK     0     -13.602   4.252   8.559  0.00  0.00     0.115 C 
HETATM   22  C   UNK     0     -13.863   5.102   7.338  0.00  0.00     0.022 A 
HETATM   23  N   UNK     0     -13.007   5.892   6.679  0.00  0.00    -0.361 N 
HETATM   24  C   UNK     0     -13.621   6.347   5.568  0.00  0.00     0.021 A 
HETATM   25  C   UNK     0     -14.907   5.845   5.516  0.00  0.00    -0.031 A 
HETATM   26  C   UNK     0     -15.990   6.102   4.488  0.00  0.00     0.051 C 
HETATM   27  C   UNK     0     -15.086   5.046   6.639  0.00  0.00    -0.027 A 
HETATM   28  C   UNK     0     -13.026   7.200   4.460  0.00  0.00     0.115 C 
HETATM   29  H   UNK     0     -10.330   6.414   5.351  0.00  0.00     0.165 HD
HETATM   30  H   UNK     0     -10.285   3.044   4.956  0.00  0.00     0.165 HD
HETATM   31  H   UNK     0     -11.876   2.894   6.573  0.00  0.00     0.165 HD
HETATM   32  H   UNK     0     -11.974   6.172   7.014  0.00  0.00     0.165 HD
ENDROOT
BRANCH   6  33
HETATM   33  C   UNK     0     -10.284   5.061   0.797  0.00  0.00     0.051 C 
BRANCH  33  34
HETATM   34  C   UNK     0      -9.549   6.102  -0.014  0.00  0.00     0.114 C 
BRANCH  34  35
HETATM   35  C   UNK     0      -8.269   5.489  -0.472  0.00  0.00     0.139 C 
HETATM   36  O   UNK     0      -8.004   4.284  -0.192  0.00  0.00    -0.650 OA
BRANCH  35  37
HETATM   37  O   UNK     0      -7.327   6.190  -1.215  0.00  0.00    -0.776 OA
HETATM   38  H   UNK     0      -6.480   5.757  -1.549  0.00  0.00     0.167 HD
ENDBRANCH  35  37
ENDBRANCH  34  35
ENDBRANCH  33  34
ENDBRANCH   6  33
BRANCH  27  39
HETATM   39  C   UNK     0     -16.379   4.386   6.967  0.00  0.00     0.051 C 
BRANCH  39  40
HETATM   40  C   UNK     0     -16.822   3.272   6.128  0.00  0.00     0.114 C 
BRANCH  40  41
HETATM   41  C   UNK     0     -17.378   2.060   6.687  0.00  0.00     0.139 C 
HETATM   42  O   UNK     0     -18.307   2.049   7.507  0.00  0.00    -0.650 OA
BRANCH  41  43
HETATM   43  O   UNK     0     -16.842   0.804   6.286  0.00  0.00    -0.776 OA
HETATM   44  H   UNK     0     -16.663   0.162   7.048  0.00  0.00     0.167 HD
ENDBRANCH  41  43
ENDBRANCH  40  41
ENDBRANCH  39  40
ENDBRANCH  27  39
BRANCH  11  45
HETATM   45  C   UNK     0      -6.239   2.865   7.426  0.00  0.00     0.051 C 
BRANCH  45  46
HETATM   46  C   UNK     0      -4.970   2.376   6.827  0.00  0.00     0.114 C 
BRANCH  46  47
HETATM   47  C   UNK     0      -4.080   1.970   7.952  0.00  0.00     0.139 C 
HETATM   48  O   UNK     0      -4.094   2.644   8.992  0.00  0.00    -0.650 OA
BRANCH  47  49
HETATM   49  O   UNK     0      -3.261   0.875   7.840  0.00  0.00    -0.776 OA
HETATM   50  H   UNK     0      -3.369   0.050   8.441  0.00  0.00     0.167 HD
ENDBRANCH  47  49
ENDBRANCH  46  47
ENDBRANCH  45  46
ENDBRANCH  11  45
BRANCH  18  51
HETATM   51  C   UNK     0     -12.031   3.775  11.218  0.00  0.00     0.051 C 
BRANCH  51  52
HETATM   52  C   UNK     0     -12.975   2.692  11.719  0.00  0.00     0.114 C 
BRANCH  52  53
HETATM   53  C   UNK     0     -14.233   3.259  12.243  0.00  0.00     0.139 C 
HETATM   54  O   UNK     0     -15.055   2.524  12.814  0.00  0.00    -0.650 OA
BRANCH  53  55
HETATM   55  O   UNK     0     -14.489   4.600  12.092  0.00  0.00    -0.776 OA
HETATM   56  H   UNK     0     -14.923   5.191  12.762  0.00  0.00     0.167 HD
ENDBRANCH  53  55
ENDBRANCH  52  53
ENDBRANCH  51  52
ENDBRANCH  18  51
TORSDOF 16
ENDMDL
MODEL 6
REMARK VINA RESULT:      -7.4      6.608     11.506
REMARK  16 active torsions:
REMARK  status: ('A' for Active; 'I' for Inactive)
REMARK    1  A    between atoms: C_6  and  C_7 
REMARK    2  A    between atoms: C_7  and  C_8 
REMARK    3  A    between atoms: C_8  and  C_9 
REMARK    4  A    between atoms: C_9  and  O_11 
REMARK    5  A    between atoms: C_16  and  C_17 
REMARK    6  A    between atoms: C_17  and  C_18 
REMARK    7  A    between atoms: C_18  and  C_19 
REMARK    8  A    between atoms: C_19  and  O_21 
REMARK    9  A    between atoms: C_28  and  C_29 
REMARK   10  A    between atoms: C_29  and  C_30 
REMARK   11  A    between atoms: C_30  and  C_31 
REMARK   12  A    between atoms: C_31  and  O_33 
REMARK   13  A    between atoms: C_42  and  C_43 
REMARK   14  A    between atoms: C_43  and  C_44 
REMARK   15  A    between atoms: C_44  and  C_45 
REMARK   16  A    between atoms: C_45  and  O_47 
ROOT
HETATM    1  C   UNK     0       0.318   4.924   9.683  0.00  0.00     0.051 C 
HETATM    2  C   UNK     0      -1.193   4.818   9.687  0.00  0.00    -0.031 A 
HETATM    3  C   UNK     0      -2.134   5.642   9.090  0.00  0.00     0.021 A 
HETATM    4  N   UNK     0      -3.373   5.181   9.383  0.00  0.00    -0.361 N 
HETATM    5  C   UNK     0      -3.242   4.077  10.147  0.00  0.00     0.022 A 
HETATM    6  C   UNK     0      -1.891   3.823  10.358  0.00  0.00    -0.027 A 
HETATM    7  C   UNK     0      -4.294   3.142  10.658  0.00  0.00     0.115 C 
HETATM    8  C   UNK     0      -5.397   2.761   9.686  0.00  0.00     0.021 A 
HETATM    9  N   UNK     0      -5.313   2.563   8.361  0.00  0.00    -0.361 N 
HETATM   10  C   UNK     0      -6.557   2.332   7.892  0.00  0.00     0.022 A 
HETATM   11  C   UNK     0      -7.467   2.373   8.945  0.00  0.00    -0.027 A 
HETATM   12  C   UNK     0      -6.742   2.642  10.078  0.00  0.00    -0.031 A 
HETATM   13  C   UNK     0      -7.316   2.774  11.471  0.00  0.00     0.051 C 
HETATM   14  C   UNK     0      -6.944   2.118   6.431  0.00  0.00     0.115 C 
HETATM   15  C   UNK     0      -6.621   3.298   5.529  0.00  0.00     0.021 A 
HETATM   16  N   UNK     0      -5.418   3.860   5.311  0.00  0.00    -0.361 N 
HETATM   17  C   UNK     0      -5.566   4.917   4.509  0.00  0.00     0.022 A 
HETATM   18  C   UNK     0      -6.931   5.043   4.181  0.00  0.00    -0.027 A 
HETATM   19  C   UNK     0      -7.581   4.023   4.825  0.00  0.00    -0.031 A 
HETATM   20  C   UNK     0      -9.073   3.767   4.711  0.00  0.00     0.051 C 
HETATM   21  C   UNK     0      -4.545   5.921   4.026  0.00  0.00     0.115 C 
HETATM   22  C   UNK     0      -3.417   6.277   4.966  0.00  0.00     0.022 A 
HETATM   23  N   UNK     0      -3.471   6.475   6.289  0.00  0.00    -0.361 N 
HETATM   24  C   UNK     0      -2.212   6.626   6.747  0.00  0.00     0.021 A 
HETATM   25  C   UNK     0      -1.326   6.533   5.691  0.00  0.00    -0.031 A 
HETATM   26  C   UNK     0       0.182   6.675   5.696  0.00  0.00     0.051 C 
HETATM   27  C   UNK     0      -2.074   6.309   4.540  0.00  0.00    -0.027 A 
HETATM   28  C   UNK     0      -1.759   6.784   8.188  0.00  0.00     0.115 C 
HETATM   29  H   UNK     0      -4.333   5.662   9.081  0.00  0.00     0.165 HD
HETATM   30  H   UNK     0      -4.370   2.536   7.762  0.00  0.00     0.165 HD
HETATM   31  H   UNK     0      -4.436   3.476   5.693  0.00  0.00     0.165 HD
HETATM   32  H   UNK     0      -4.403   6.554   6.907  0.00  0.00     0.165 HD
ENDROOT
BRANCH   6  33
HETATM   33  C   UNK     0      -1.222   2.722  11.142  0.00  0.00     0.051 C 
BRANCH  33  34
HETATM   34  C   UNK     0      -0.773   1.609  10.225  0.00  0.00     0.114 C 
BRANCH  34  35
HETATM   35  C   UNK     0       0.431   0.981  10.842  0.00  0.00     0.139 C 
HETATM   36  O   UNK     0       0.539   0.914  12.101  0.00  0.00    -0.650 OA
BRANCH  35  37
HETATM   37  O   UNK     0       1.468   0.448  10.087  0.00  0.00    -0.776 OA
HETATM   38  H   UNK     0       1.618   0.709   9.126  0.00  0.00     0.167 HD
ENDBRANCH  35  37
ENDBRANCH  34  35
ENDBRANCH  33  34
ENDBRANCH   6  33
BRANCH  27  39
HETATM   39  C   UNK     0      -1.468   6.224   3.183  0.00  0.00     0.051 C 
BRANCH  39  40
HETATM   40  C   UNK     0      -1.283   4.901   2.588  0.00  0.00     0.114 C 
BRANCH  40  41
HETATM   41  C   UNK     0      -1.949   4.505   1.368  0.00  0.00     0.139 C 
HETATM   42  O   UNK     0      -3.172   4.327   1.284  0.00  0.00    -0.650 OA
BRANCH  41  43
HETATM   43  O   UNK     0      -1.174   4.304   0.191  0.00  0.00    -0.776 OA
HETATM   44  H   UNK     0      -0.527   5.055  -0.018  0.00  0.00     0.167 HD
ENDBRANCH  41  43
ENDBRANCH  40  41
ENDBRANCH  39  40
ENDBRANCH  27  39
BRANCH  11  45
HETATM   45  C   UNK     0      -8.957   2.167   8.910  0.00  0.00     0.051 C 
BRANCH  45  46
HETATM   46  C   UNK     0      -9.723   3.355   8.453  0.00  0.00     0.114 C 
BRANCH  46  47
HETATM   47  C   UNK     0     -10.934   2.854   7.744  0.00  0.00     0.139 C 
HETATM   48  O   UNK     0     -11.842   3.657   7.482  0.00  0.00    -0.650 OA
BRANCH  47  49
HETATM   49  O   UNK     0     -11.045   1.534   7.388  0.00  0.00    -0.776 OA
HETATM   50  H   UNK     0     -10.230   0.974   7.111  0.00  0.00     0.167 HD
ENDBRANCH  47  49
ENDBRANCH  46  47
ENDBRANCH  45  46
ENDBRANCH  11  45
BRANCH  18  51
HETATM   51  C   UNK     0      -7.577   6.068   3.285  0.00  0.00     0.051 C 
BRANCH  51  52
HETATM   52  C   UNK     0      -7.671   5.431   1.907  0.00  0.00     0.114 C 
BRANCH  52  53
HETATM   53  C   UNK     0      -6.553   5.840   1.035  0.00  0.00     0.139 C 
HETATM   54  O   UNK     0      -6.178   7.023   1.019  0.00  0.00    -0.650 OA
BRANCH  53  55
HETATM   55  O   UNK     0      -5.934   4.905   0.241  0.00  0.00    -0.776 OA
HETATM   56  H   UNK     0      -5.004   4.573   0.347  0.00  0.00     0.167 HD
ENDBRANCH  53  55
ENDBRANCH  52  53
ENDBRANCH  51  52
ENDBRANCH  18  51
TORSDOF 16
ENDMDL
MODEL 7
REMARK VINA RESULT:      -7.4      2.838      5.603
REMARK  16 active torsions:
REMARK  status: ('A' for Active; 'I' for Inactive)
REMARK    1  A    between atoms: C_6  and  C_7 
REMARK    2  A    between atoms: C_7  and  C_8 
REMARK    3  A    between atoms: C_8  and  C_9 
REMARK    4  A    between atoms: C_9  and  O_11 
REMARK    5  A    between atoms: C_16  and  C_17 
REMARK    6  A    between atoms: C_17  and  C_18 
REMARK    7  A    between atoms: C_18  and  C_19 
REMARK    8  A    between atoms: C_19  and  O_21 
REMARK    9  A    between atoms: C_28  and  C_29 
REMARK   10  A    between atoms: C_29  and  C_30 
REMARK   11  A    between atoms: C_30  and  C_31 
REMARK   12  A    between atoms: C_31  and  O_33 
REMARK   13  A    between atoms: C_42  and  C_43 
REMARK   14  A    between atoms: C_43  and  C_44 
REMARK   15  A    between atoms: C_44  and  C_45 
REMARK   16  A    between atoms: C_45  and  O_47 
ROOT
HETATM    1  C   UNK     0     -15.189   5.611   6.900  0.00  0.00     0.051 C 
HETATM    2  C   UNK     0     -14.251   6.159   5.844  0.00  0.00    -0.031 A 
HETATM    3  C   UNK     0     -13.003   6.744   5.994  0.00  0.00     0.021 A 
HETATM    4  N   UNK     0     -12.540   7.114   4.776  0.00  0.00    -0.361 N 
HETATM    5  C   UNK     0     -13.461   6.770   3.853  0.00  0.00     0.022 A 
HETATM    6  C   UNK     0     -14.545   6.172   4.487  0.00  0.00    -0.027 A 
HETATM    7  C   UNK     0     -13.398   6.872   2.361  0.00  0.00     0.115 C 
HETATM    8  C   UNK     0     -12.087   6.473   1.706  0.00  0.00     0.021 A 
HETATM    9  N   UNK     0     -11.234   5.501   2.065  0.00  0.00    -0.361 N 
HETATM   10  C   UNK     0     -10.157   5.568   1.254  0.00  0.00     0.022 A 
HETATM   11  C   UNK     0     -10.325   6.606   0.341  0.00  0.00    -0.027 A 
HETATM   12  C   UNK     0     -11.539   7.180   0.620  0.00  0.00    -0.031 A 
HETATM   13  C   UNK     0     -12.144   8.349  -0.124  0.00  0.00     0.051 C 
HETATM   14  C   UNK     0      -8.908   4.695   1.340  0.00  0.00     0.115 C 
HETATM   15  C   UNK     0      -8.158   4.822   2.656  0.00  0.00     0.021 A 
HETATM   16  N   UNK     0      -8.627   4.582   3.895  0.00  0.00    -0.361 N 
HETATM   17  C   UNK     0      -7.679   4.878   4.788  0.00  0.00     0.022 A 
HETATM   18  C   UNK     0      -6.535   5.323   4.097  0.00  0.00    -0.027 A 
HETATM   19  C   UNK     0      -6.847   5.282   2.763  0.00  0.00    -0.031 A 
HETATM   20  C   UNK     0      -5.875   5.649   1.656  0.00  0.00     0.051 C 
HETATM   21  C   UNK     0      -7.725   4.852   6.299  0.00  0.00     0.115 C 
HETATM   22  C   UNK     0      -9.035   5.203   6.963  0.00  0.00     0.022 A 
HETATM   23  N   UNK     0      -9.906   6.163   6.624  0.00  0.00    -0.361 N 
HETATM   24  C   UNK     0     -11.005   6.028   7.394  0.00  0.00     0.021 A 
HETATM   25  C   UNK     0     -10.833   4.962   8.256  0.00  0.00    -0.031 A 
HETATM   26  C   UNK     0     -11.767   4.445   9.332  0.00  0.00     0.051 C 
HETATM   27  C   UNK     0      -9.580   4.418   7.999  0.00  0.00    -0.027 A 
HETATM   28  C   UNK     0     -12.297   6.823   7.318  0.00  0.00     0.115 C 
HETATM   29  H   UNK     0     -11.583   7.652   4.582  0.00  0.00     0.165 HD
HETATM   30  H   UNK     0     -11.412   4.735   2.858  0.00  0.00     0.165 HD
HETATM   31  H   UNK     0      -9.631   4.149   4.144  0.00  0.00     0.165 HD
HETATM   32  H   UNK     0      -9.736   6.972   5.868  0.00  0.00     0.165 HD
ENDROOT
BRANCH   6  33
HETATM   33  C   UNK     0     -15.825   5.622   3.908  0.00  0.00     0.051 C 
BRANCH  33  34
HETATM   34  C   UNK     0     -16.863   6.711   3.776  0.00  0.00     0.114 C 
BRANCH  34  35
HETATM   35  C   UNK     0     -18.194   6.047   3.666  0.00  0.00     0.139 C 
HETATM   36  O   UNK     0     -19.217   6.580   4.187  0.00  0.00    -0.650 OA
BRANCH  35  37
HETATM   37  O   UNK     0     -18.377   4.841   3.002  0.00  0.00    -0.776 OA
HETATM   38  H   UNK     0     -17.870   4.008   3.256  0.00  0.00     0.167 HD
ENDBRANCH  35  37
ENDBRANCH  34  35
ENDBRANCH  33  34
ENDBRANCH   6  33
BRANCH  27  39
HETATM   39  C   UNK     0      -9.009   3.290   8.784  0.00  0.00     0.051 C 
BRANCH  39  40
HETATM   40  C   UNK     0      -8.967   1.965   8.166  0.00  0.00     0.114 C 
BRANCH  40  41
HETATM   41  C   UNK     0      -9.809   1.610   7.046  0.00  0.00     0.139 C 
HETATM   42  O   UNK     0      -9.420   1.611   5.870  0.00  0.00    -0.650 OA
BRANCH  41  43
HETATM   43  O   UNK     0     -11.162   1.238   7.289  0.00  0.00    -0.776 OA
HETATM   44  H   UNK     0     -11.600   0.730   6.530  0.00  0.00     0.167 HD
ENDBRANCH  41  43
ENDBRANCH  40  41
ENDBRANCH  39  40
ENDBRANCH  27  39
BRANCH  11  45
HETATM   45  C   UNK     0      -9.397   7.054  -0.756  0.00  0.00     0.051 C 
BRANCH  45  46
HETATM   46  C   UNK     0      -8.372   8.036  -0.320  0.00  0.00     0.114 C 
BRANCH  46  47
HETATM   47  C   UNK     0      -7.932   8.783  -1.533  0.00  0.00     0.139 C 
HETATM   48  O   UNK     0      -7.625   9.977  -1.413  0.00  0.00    -0.650 OA
BRANCH  47  49
HETATM   49  O   UNK     0      -7.870   8.164  -2.756  0.00  0.00    -0.776 OA
HETATM   50  H   UNK     0      -7.202   8.454  -3.480  0.00  0.00     0.167 HD
ENDBRANCH  47  49
ENDBRANCH  46  47
ENDBRANCH  45  46
ENDBRANCH  11  45
BRANCH  18  51
HETATM   51  C   UNK     0      -5.209   5.744   4.675  0.00  0.00     0.051 C 
BRANCH  51  52
HETATM   52  C   UNK     0      -4.421   4.463   4.910  0.00  0.00     0.114 C 
BRANCH  52  53
HETATM   53  C   UNK     0      -3.083   4.520   4.289  0.00  0.00     0.139 C 
HETATM   54  O   UNK     0      -2.102   4.880   4.958  0.00  0.00    -0.650 OA
BRANCH  53  55
HETATM   55  O   UNK     0      -2.932   4.175   2.968  0.00  0.00    -0.776 OA
HETATM   56  H   UNK     0      -3.652   3.866   2.359  0.00  0.00     0.167 HD
ENDBRANCH  53  55
ENDBRANCH  52  53
ENDBRANCH  51  52
ENDBRANCH  18  51
TORSDOF 16
ENDMDL
MODEL 8
REMARK VINA RESULT:      -7.4      2.333      7.907
REMARK  16 active torsions:
REMARK  status: ('A' for Active; 'I' for Inactive)
REMARK    1  A    between atoms: C_6  and  C_7 
REMARK    2  A    between atoms: C_7  and  C_8 
REMARK    3  A    between atoms: C_8  and  C_9 
REMARK    4  A    between atoms: C_9  and  O_11 
REMARK    5  A    between atoms: C_16  and  C_17 
REMARK    6  A    between atoms: C_17  and  C_18 
REMARK    7  A    between atoms: C_18  and  C_19 
REMARK    8  A    between atoms: C_19  and  O_21 
REMARK    9  A    between atoms: C_28  and  C_29 
REMARK   10  A    between atoms: C_29  and  C_30 
REMARK   11  A    between atoms: C_30  and  C_31 
REMARK   12  A    between atoms: C_31  and  O_33 
REMARK   13  A    between atoms: C_42  and  C_43 
REMARK   14  A    between atoms: C_43  and  C_44 
REMARK   15  A    between atoms: C_44  and  C_45 
REMARK   16  A    between atoms: C_45  and  O_47 
ROOT
HETATM    1  C   UNK     0     -19.112   5.136   7.594  0.00  0.00     0.051 C 
HETATM    2  C   UNK     0     -17.693   4.678   7.327  0.00  0.00    -0.031 A 
HETATM    3  C   UNK     0     -17.090   4.336   6.127  0.00  0.00     0.021 A 
HETATM    4  N   UNK     0     -15.813   3.955   6.368  0.00  0.00    -0.361 N 
HETATM    5  C   UNK     0     -15.586   4.056   7.694  0.00  0.00     0.022 A 
HETATM    6  C   UNK     0     -16.742   4.503   8.325  0.00  0.00    -0.027 A 
HETATM    7  C   UNK     0     -14.319   3.845   8.462  0.00  0.00     0.115 C 
HETATM    8  C   UNK     0     -13.050   4.413   7.851  0.00  0.00     0.021 A 
HETATM    9  N   UNK     0     -12.894   5.546   7.149  0.00  0.00    -0.361 N 
HETATM   10  C   UNK     0     -11.614   5.604   6.725  0.00  0.00     0.022 A 
HETATM   11  C   UNK     0     -10.923   4.483   7.174  0.00  0.00    -0.027 A 
HETATM   12  C   UNK     0     -11.822   3.728   7.885  0.00  0.00    -0.031 A 
HETATM   13  C   UNK     0     -11.513   2.414   8.567  0.00  0.00     0.051 C 
HETATM   14  C   UNK     0     -11.006   6.688   5.838  0.00  0.00     0.115 C 
HETATM   15  C   UNK     0     -11.660   6.803   4.471  0.00  0.00     0.021 A 
HETATM   16  N   UNK     0     -12.954   7.057   4.198  0.00  0.00    -0.361 N 
HETATM   17  C   UNK     0     -13.141   7.007   2.877  0.00  0.00     0.022 A 
HETATM   18  C   UNK     0     -11.909   6.715   2.259  0.00  0.00    -0.027 A 
HETATM   19  C   UNK     0     -10.989   6.591   3.268  0.00  0.00    -0.031 A 
HETATM   20  C   UNK     0      -9.515   6.312   3.037  0.00  0.00     0.051 C 
HETATM   21  C   UNK     0     -14.412   7.147   2.070  0.00  0.00     0.115 C 
HETATM   22  C   UNK     0     -15.690   6.626   2.684  0.00  0.00     0.022 A 
HETATM   23  N   UNK     0     -15.873   5.503   3.392  0.00  0.00    -0.361 N 
HETATM   24  C   UNK     0     -17.134   5.505   3.870  0.00  0.00     0.021 A 
HETATM   25  C   UNK     0     -17.782   6.651   3.451  0.00  0.00    -0.031 A 
HETATM   26  C   UNK     0     -19.213   7.081   3.696  0.00  0.00     0.051 C 
HETATM   27  C   UNK     0     -16.878   7.384   2.690  0.00  0.00    -0.027 A 
HETATM   28  C   UNK     0     -17.777   4.491   4.800  0.00  0.00     0.115 C 
HETATM   29  H   UNK     0     -15.093   3.581   5.604  0.00  0.00     0.165 HD
HETATM   30  H   UNK     0     -13.673   6.332   6.993  0.00  0.00     0.165 HD
HETATM   31  H   UNK     0     -13.742   7.325   4.949  0.00  0.00     0.165 HD
HETATM   32  H   UNK     0     -15.126   4.678   3.525  0.00  0.00     0.165 HD
ENDROOT
BRANCH   6  33
HETATM   33  C   UNK     0     -17.010   4.769   9.785  0.00  0.00     0.051 C 
BRANCH  33  34
HETATM   34  C   UNK     0     -16.911   6.246  10.085  0.00  0.00     0.114 C 
BRANCH  34  35
HETATM   35  C   UNK     0     -15.470   6.563  10.298  0.00  0.00     0.139 C 
HETATM   36  O   UNK     0     -14.895   6.225  11.374  0.00  0.00    -0.650 OA
BRANCH  35  37
HETATM   37  O   UNK     0     -14.700   7.227   9.351  0.00  0.00    -0.776 OA
HETATM   38  H   UNK     0     -13.844   6.838   8.989  0.00  0.00     0.167 HD
ENDBRANCH  35  37
ENDBRANCH  34  35
ENDBRANCH  33  34
ENDBRANCH   6  33
BRANCH  27  39
HETATM   39  C   UNK     0     -17.238   8.656   2.006  0.00  0.00     0.051 C 
BRANCH  39  40
HETATM   40  C   UNK     0     -17.608   8.602   0.592  0.00  0.00     0.114 C 
BRANCH  40  41
HETATM   41  C   UNK     0     -16.958   9.421  -0.407  0.00  0.00     0.139 C 
HETATM   42  O   UNK     0     -15.854   9.956  -0.239  0.00  0.00    -0.650 OA
BRANCH  41  43
HETATM   43  O   UNK     0     -17.608   9.634  -1.655  0.00  0.00    -0.776 OA
HETATM   44  H   UNK     0     -17.085  10.205  -2.308  0.00  0.00     0.167 HD
ENDBRANCH  41  43
ENDBRANCH  40  41
ENDBRANCH  39  40
ENDBRANCH  27  39
BRANCH  11  45
HETATM   45  C   UNK     0      -9.479   4.117   6.959  0.00  0.00     0.051 C 
BRANCH  45  46
HETATM   46  C   UNK     0      -9.230   3.338   5.719  0.00  0.00     0.114 C 
BRANCH  46  47
HETATM   47  C   UNK     0      -8.589   2.054   6.126  0.00  0.00     0.139 C 
HETATM   48  O   UNK     0      -7.381   2.055   6.399  0.00  0.00    -0.650 OA
BRANCH  47  49
HETATM   49  O   UNK     0      -9.321   0.895   6.195  0.00  0.00    -0.776 OA
HETATM   50  H   UNK     0      -8.931   0.027   6.581  0.00  0.00     0.167 HD
ENDBRANCH  47  49
ENDBRANCH  46  47
ENDBRANCH  45  46
ENDBRANCH  11  45
BRANCH  18  51
HETATM   51  C   UNK     0     -11.620   6.583   0.787  0.00  0.00     0.051 C 
BRANCH  51  52
HETATM   52  C   UNK     0     -11.201   7.966   0.309  0.00  0.00     0.114 C 
BRANCH  52  53
HETATM   53  C   UNK     0     -12.045   8.441  -0.804  0.00  0.00     0.139 C 
HETATM   54  O   UNK     0     -11.651   8.327  -1.976  0.00  0.00    -0.650 OA
BRANCH  53  55
HETATM   55  O   UNK     0     -13.266   9.012  -0.536  0.00  0.00    -0.776 OA
HETATM   56  H   UNK     0     -13.513   9.961  -0.691  0.00  0.00     0.167 HD
ENDBRANCH  53  55
ENDBRANCH  52  53
ENDBRANCH  51  52
ENDBRANCH  18  51
TORSDOF 16
ENDMDL
MODEL 9
REMARK VINA RESULT:      -7.4      3.382     10.522
REMARK  16 active torsions:
REMARK  status: ('A' for Active; 'I' for Inactive)
REMARK    1  A    between atoms: C_6  and  C_7 
REMARK    2  A    between atoms: C_7  and  C_8 
REMARK    3  A    between atoms: C_8  and  C_9 
REMARK    4  A    between atoms: C_9  and  O_11 
REMARK    5  A    between atoms: C_16  and  C_17 
REMARK    6  A    between atoms: C_17  and  C_18 
REMARK    7  A    between atoms: C_18  and  C_19 
REMARK    8  A    between atoms: C_19  and  O_21 
REMARK    9  A    between atoms: C_28  and  C_29 
REMARK   10  A    between atoms: C_29  and  C_30 
REMARK   11  A    between atoms: C_30  and  C_31 
REMARK   12  A    between atoms: C_31  and  O_33 
REMARK   13  A    between atoms: C_42  and  C_43 
REMARK   14  A    between atoms: C_43  and  C_44 
REMARK   15  A    between atoms: C_44  and  C_45 
REMARK   16  A    between atoms: C_45  and  O_47 
ROOT
HETATM    1  C   UNK     0     -12.888   6.375   1.137  0.00  0.00     0.051 C 
HETATM    2  C   UNK     0     -12.036   6.292   2.386  0.00  0.00    -0.031 A 
HETATM    3  C   UNK     0     -12.310   6.736   3.670  0.00  0.00     0.021 A 
HETATM    4  N   UNK     0     -11.244   6.478   4.464  0.00  0.00    -0.361 N 
HETATM    5  C   UNK     0     -10.299   5.872   3.716  0.00  0.00     0.022 A 
HETATM    6  C   UNK     0     -10.760   5.742   2.410  0.00  0.00    -0.027 A 
HETATM    7  C   UNK     0      -8.979   5.300   4.130  0.00  0.00     0.115 C 
HETATM    8  C   UNK     0      -8.955   4.508   5.425  0.00  0.00     0.021 A 
HETATM    9  N   UNK     0      -9.902   3.701   5.929  0.00  0.00    -0.361 N 
HETATM   10  C   UNK     0      -9.491   3.281   7.144  0.00  0.00     0.022 A 
HETATM   11  C   UNK     0      -8.242   3.825   7.427  0.00  0.00    -0.027 A 
HETATM   12  C   UNK     0      -7.898   4.598   6.348  0.00  0.00    -0.031 A 
HETATM   13  C   UNK     0      -6.612   5.382   6.209  0.00  0.00     0.051 C 
HETATM   14  C   UNK     0     -10.280   2.398   8.107  0.00  0.00     0.115 C 
HETATM   15  C   UNK     0     -11.601   3.002   8.555  0.00  0.00     0.021 A 
HETATM   16  N   UNK     0     -12.634   3.385   7.781  0.00  0.00    -0.361 N 
HETATM   17  C   UNK     0     -13.578   3.932   8.550  0.00  0.00     0.022 A 
HETATM   18  C   UNK     0     -13.145   3.894   9.890  0.00  0.00    -0.027 A 
HETATM   19  C   UNK     0     -11.905   3.308   9.880  0.00  0.00    -0.031 A 
HETATM   20  C   UNK     0     -11.089   3.038  11.131  0.00  0.00     0.051 C 
HETATM   21  C   UNK     0     -14.891   4.577   8.166  0.00  0.00     0.115 C 
HETATM   22  C   UNK     0     -14.941   5.332   6.859  0.00  0.00     0.022 A 
HETATM   23  N   UNK     0     -14.011   6.139   6.330  0.00  0.00    -0.361 N 
HETATM   24  C   UNK     0     -14.406   6.483   5.088  0.00  0.00     0.021 A 
HETATM   25  C   UNK     0     -15.624   5.891   4.813  0.00  0.00    -0.031 A 
HETATM   26  C   UNK     0     -16.483   6.010   3.572  0.00  0.00     0.051 C 
HETATM   27  C   UNK     0     -15.987   5.150   5.932  0.00  0.00    -0.027 A 
HETATM   28  C   UNK     0     -13.643   7.307   4.065  0.00  0.00     0.115 C 
HETATM   29  H   UNK     0     -11.151   6.762   5.538  0.00  0.00     0.165 HD
HETATM   30  H   UNK     0     -10.839   3.386   5.408  0.00  0.00     0.165 HD
HETATM   31  H   UNK     0     -12.719   3.224   6.675  0.00  0.00     0.165 HD
HETATM   32  H   UNK     0     -13.087   6.509   6.846  0.00  0.00     0.165 HD
ENDROOT
BRANCH   6  33
HETATM   33  C   UNK     0     -10.089   5.145   1.199  0.00  0.00     0.051 C 
BRANCH  33  34
HETATM   34  C   UNK     0      -9.272   6.186   0.473  0.00  0.00     0.114 C 
BRANCH  34  35
HETATM   35  C   UNK     0      -8.302   5.464  -0.399  0.00  0.00     0.139 C 
HETATM   36  O   UNK     0      -8.070   4.234  -0.212  0.00  0.00    -0.650 OA
BRANCH  35  37
HETATM   37  O   UNK     0      -7.620   6.087  -1.438  0.00  0.00    -0.776 OA
HETATM   38  H   UNK     0      -7.393   7.068  -1.416  0.00  0.00     0.167 HD
ENDBRANCH  35  37
ENDBRANCH  34  35
ENDBRANCH  33  34
ENDBRANCH   6  33
BRANCH  27  39
HETATM   39  C   UNK     0     -17.282   4.424   6.038  0.00  0.00     0.051 C 
BRANCH  39  40
HETATM   40  C   UNK     0     -17.334   3.030   5.597  0.00  0.00     0.114 C 
BRANCH  40  41
HETATM   41  C   UNK     0     -17.503   1.934   6.525  0.00  0.00     0.139 C 
HETATM   42  O   UNK     0     -18.188   2.009   7.553  0.00  0.00    -0.650 OA
BRANCH  41  43
HETATM   43  O   UNK     0     -16.853   0.696   6.257  0.00  0.00    -0.776 OA
HETATM   44  H   UNK     0     -17.391   0.056   5.685  0.00  0.00     0.167 HD
ENDBRANCH  41  43
ENDBRANCH  40  41
ENDBRANCH  39  40
ENDBRANCH  27  39
BRANCH  11  45
HETATM   45  C   UNK     0      -7.388   3.636   8.652  0.00  0.00     0.051 C 
BRANCH  45  46
HETATM   46  C   UNK     0      -6.851   2.260   8.810  0.00  0.00     0.114 C 
BRANCH  46  47
HETATM   47  C   UNK     0      -7.267   1.776  10.158  0.00  0.00     0.139 C 
HETATM   48  O   UNK     0      -7.245   2.573  11.106  0.00  0.00    -0.650 OA
BRANCH  47  49
HETATM   49  O   UNK     0      -7.664   0.476  10.346  0.00  0.00    -0.776 OA
HETATM   50  H   UNK     0      -8.249  -0.019   9.663  0.00  0.00     0.167 HD
ENDBRANCH  47  49
ENDBRANCH  46  47
ENDBRANCH  45  46
ENDBRANCH  11  45
BRANCH  18  51
HETATM   51  C   UNK     0     -13.880   4.371  11.116  0.00  0.00     0.051 C 
BRANCH  51  52
HETATM   52  C   UNK     0     -13.434   5.807  11.348  0.00  0.00     0.114 C 
BRANCH  52  53
HETATM   53  C   UNK     0     -14.562   6.754  11.256  0.00  0.00     0.139 C 
HETATM   54  O   UNK     0     -15.323   6.910  12.224  0.00  0.00    -0.650 OA
BRANCH  53  55
HETATM   55  O   UNK     0     -14.765   7.457  10.093  0.00  0.00    -0.776 OA
HETATM   56  H   UNK     0     -14.095   7.605   9.375  0.00  0.00     0.167 HD
ENDBRANCH  53  55
ENDBRANCH  52  53
ENDBRANCH  51  52
ENDBRANCH  18  51
TORSDOF 16
ENDMDL
MODEL 10
REMARK VINA RESULT:      -7.3     13.267     19.113
REMARK  16 active torsions:
REMARK  status: ('A' for Active; 'I' for Inactive)
REMARK    1  A    between atoms: C_6  and  C_7 
REMARK    2  A    between atoms: C_7  and  C_8 
REMARK    3  A    between atoms: C_8  and  C_9 
REMARK    4  A    between atoms: C_9  and  O_11 
REMARK    5  A    between atoms: C_16  and  C_17 
REMARK    6  A    between atoms: C_17  and  C_18 
REMARK    7  A    between atoms: C_18  and  C_19 
REMARK    8  A    between atoms: C_19  and  O_21 
REMARK    9  A    between atoms: C_28  and  C_29 
REMARK   10  A    between atoms: C_29  and  C_30 
REMARK   11  A    between atoms: C_30  and  C_31 
REMARK   12  A    between atoms: C_31  and  O_33 
REMARK   13  A    between atoms: C_42  and  C_43 
REMARK   14  A    between atoms: C_43  and  C_44 
REMARK   15  A    between atoms: C_44  and  C_45 
REMARK   16  A    between atoms: C_45  and  O_47 
ROOT
HETATM    1  C   UNK     0     -22.022  15.119 -15.731  0.00  0.00     0.051 C 
HETATM    2  C   UNK     0     -21.802  14.227 -14.526  0.00  0.00    -0.031 A 
HETATM    3  C   UNK     0     -21.074  13.052 -14.423  0.00  0.00     0.021 A 
HETATM    4  N   UNK     0     -21.180  12.577 -13.159  0.00  0.00    -0.361 N 
HETATM    5  C   UNK     0     -21.951  13.428 -12.453  0.00  0.00     0.022 A 
HETATM    6  C   UNK     0     -22.360  14.470 -13.278  0.00  0.00    -0.027 A 
HETATM    7  C   UNK     0     -22.299  13.413 -10.997  0.00  0.00     0.115 C 
HETATM    8  C   UNK     0     -21.174  13.085 -10.031  0.00  0.00     0.021 A 
HETATM    9  N   UNK     0     -19.876  13.414 -10.117  0.00  0.00    -0.361 N 
HETATM   10  C   UNK     0     -19.227  12.833  -9.085  0.00  0.00     0.022 A 
HETATM   11  C   UNK     0     -20.133  12.118  -8.309  0.00  0.00    -0.027 A 
HETATM   12  C   UNK     0     -21.362  12.272  -8.899  0.00  0.00    -0.031 A 
HETATM   13  C   UNK     0     -22.655  11.671  -8.395  0.00  0.00     0.051 C 
HETATM   14  C   UNK     0     -17.725  12.885  -8.821  0.00  0.00     0.115 C 
HETATM   15  C   UNK     0     -16.883  12.281  -9.934  0.00  0.00     0.021 A 
HETATM   16  N   UNK     0     -16.847  12.649 -11.229  0.00  0.00    -0.361 N 
HETATM   17  C   UNK     0     -16.035  11.826 -11.896  0.00  0.00     0.022 A 
HETATM   18  C   UNK     0     -15.508  10.883 -10.991  0.00  0.00    -0.027 A 
HETATM   19  C   UNK     0     -16.046  11.180  -9.766  0.00  0.00    -0.031 A 
HETATM   20  C   UNK     0     -15.713  10.424  -8.492  0.00  0.00     0.051 C 
HETATM   21  C   UNK     0     -15.710  11.767 -13.371  0.00  0.00     0.115 C 
HETATM   22  C   UNK     0     -16.807  12.133 -14.343  0.00  0.00     0.022 A 
HETATM   23  N   UNK     0     -18.109  11.823 -14.280  0.00  0.00    -0.361 N 
HETATM   24  C   UNK     0     -18.748  12.475 -15.272  0.00  0.00     0.021 A 
HETATM   25  C   UNK     0     -17.834  13.216 -15.997  0.00  0.00    -0.031 A 
HETATM   26  C   UNK     0     -18.063  14.078 -17.221  0.00  0.00     0.051 C 
HETATM   27  C   UNK     0     -16.585  13.013 -15.421  0.00  0.00    -0.027 A 
HETATM   28  C   UNK     0     -20.241  12.511 -15.550  0.00  0.00     0.115 C 
HETATM   29  H   UNK     0     -20.741  11.623 -12.786  0.00  0.00     0.165 HD
HETATM   30  H   UNK     0     -19.422  14.098 -10.876  0.00  0.00     0.165 HD
HETATM   31  H   UNK     0     -17.369  13.536 -11.673  0.00  0.00     0.165 HD
HETATM   32  H   UNK     0     -18.582  11.105 -13.561  0.00  0.00     0.165 HD
ENDROOT
BRANCH   6  33
HETATM   33  C   UNK     0     -23.231  15.663 -12.975  0.00  0.00     0.051 C 
BRANCH  33  34
HETATM   34  C   UNK     0     -24.687  15.264 -12.927  0.00  0.00     0.114 C 
BRANCH  34  35
HETATM   35  C   UNK     0     -25.418  16.123 -13.901  0.00  0.00     0.139 C 
HETATM   36  O   UNK     0     -24.791  16.974 -14.597  0.00  0.00    -0.650 OA
BRANCH  35  37
HETATM   37  O   UNK     0     -26.792  16.036 -14.094  0.00  0.00    -0.776 OA
HETATM   38  H   UNK     0     -27.296  15.174 -13.964  0.00  0.00     0.167 HD
ENDBRANCH  35  37
ENDBRANCH  34  35
ENDBRANCH  33  34
ENDBRANCH   6  33
BRANCH  27  39
HETATM   39  C   UNK     0     -15.333  13.596 -15.975  0.00  0.00     0.051 C 
BRANCH  39  40
HETATM   40  C   UNK     0     -14.532  12.780 -16.887  0.00  0.00     0.114 C 
BRANCH  40  41
HETATM   41  C   UNK     0     -13.643  11.743 -16.415  0.00  0.00     0.139 C 
HETATM   42  O   UNK     0     -14.012  10.588 -16.163  0.00  0.00    -0.650 OA
BRANCH  41  43
HETATM   43  O   UNK     0     -12.265  12.048 -16.222  0.00  0.00    -0.776 OA
HETATM   44  H   UNK     0     -11.756  12.243 -17.076  0.00  0.00     0.167 HD
ENDBRANCH  41  43
ENDBRANCH  40  41
ENDBRANCH  39  40
ENDBRANCH  27  39
BRANCH  11  45
HETATM   45  C   UNK     0     -19.878  11.318  -7.059  0.00  0.00     0.051 C 
BRANCH  45  46
HETATM   46  C   UNK     0     -20.163  12.053  -5.800  0.00  0.00     0.114 C 
BRANCH  46  47
HETATM   47  C   UNK     0     -20.794  11.085  -4.857  0.00  0.00     0.139 C 
HETATM   48  O   UNK     0     -20.138  10.698  -3.880  0.00  0.00    -0.650 OA
BRANCH  47  49
HETATM   49  O   UNK     0     -22.071  10.630  -5.067  0.00  0.00    -0.776 OA
HETATM   50  H   UNK     0     -22.269   9.812  -5.655  0.00  0.00     0.167 HD
ENDBRANCH  47  49
ENDBRANCH  46  47
ENDBRANCH  45  46
ENDBRANCH  11  45
BRANCH  18  51
HETATM   51  C   UNK     0     -14.529   9.773 -11.274  0.00  0.00     0.051 C 
BRANCH  51  52
HETATM   52  C   UNK     0     -15.362   8.555 -11.643  0.00  0.00     0.114 C 
BRANCH  52  53
HETATM   53  C   UNK     0     -15.044   8.060 -12.997  0.00  0.00     0.139 C 
HETATM   54  O   UNK     0     -15.699   7.128 -13.488  0.00  0.00    -0.650 OA
BRANCH  53  55
HETATM   55  O   UNK     0     -14.017   8.635 -13.706  0.00  0.00    -0.776 OA
HETATM   56  H   UNK     0     -13.259   9.150 -13.323  0.00  0.00     0.167 HD
ENDBRANCH  53  55
ENDBRANCH  52  53
ENDBRANCH  51  52
ENDBRANCH  18  51
TORSDOF 16
ENDMDL
MODEL 11
REMARK VINA RESULT:      -7.3     13.517     19.325
REMARK  16 active torsions:
REMARK  status: ('A' for Active; 'I' for Inactive)
REMARK    1  A    between atoms: C_6  and  C_7 
REMARK    2  A    between atoms: C_7  and  C_8 
REMARK    3  A    between atoms: C_8  and  C_9 
REMARK    4  A    between atoms: C_9  and  O_11 
REMARK    5  A    between atoms: C_16  and  C_17 
REMARK    6  A    between atoms: C_17  and  C_18 
REMARK    7  A    between atoms: C_18  and  C_19 
REMARK    8  A    between atoms: C_19  and  O_21 
REMARK    9  A    between atoms: C_28  and  C_29 
REMARK   10  A    between atoms: C_29  and  C_30 
REMARK   11  A    between atoms: C_30  and  C_31 
REMARK   12  A    between atoms: C_31  and  O_33 
REMARK   13  A    between atoms: C_42  and  C_43 
REMARK   14  A    between atoms: C_43  and  C_44 
REMARK   15  A    between atoms: C_44  and  C_45 
REMARK   16  A    between atoms: C_45  and  O_47 
ROOT
HETATM    1  C   UNK     0     -22.331  15.191 -15.692  0.00  0.00     0.051 C 
HETATM    2  C   UNK     0     -22.044  14.297 -14.502  0.00  0.00    -0.031 A 
HETATM    3  C   UNK     0     -21.308  13.125 -14.441  0.00  0.00     0.021 A 
HETATM    4  N   UNK     0     -21.344  12.647 -13.174  0.00  0.00    -0.361 N 
HETATM    5  C   UNK     0     -22.079  13.495 -12.425  0.00  0.00     0.022 A 
HETATM    6  C   UNK     0     -22.535  14.537 -13.225  0.00  0.00    -0.027 A 
HETATM    7  C   UNK     0     -22.347  13.476 -10.952  0.00  0.00     0.115 C 
HETATM    8  C   UNK     0     -21.171  13.150 -10.049  0.00  0.00     0.021 A 
HETATM    9  N   UNK     0     -19.880  13.484 -10.204  0.00  0.00    -0.361 N 
HETATM   10  C   UNK     0     -19.175  12.903  -9.210  0.00  0.00     0.022 A 
HETATM   11  C   UNK     0     -20.036  12.184  -8.387  0.00  0.00    -0.027 A 
HETATM   12  C   UNK     0     -21.295  12.335  -8.910  0.00  0.00    -0.031 A 
HETATM   13  C   UNK     0     -22.558  11.730  -8.339  0.00  0.00     0.051 C 
HETATM   14  C   UNK     0     -17.661  12.960  -9.028  0.00  0.00     0.115 C 
HETATM   15  C   UNK     0     -16.879  12.360 -10.185  0.00  0.00     0.021 A 
HETATM   16  N   UNK     0     -16.914  12.730 -11.479  0.00  0.00    -0.361 N 
HETATM   17  C   UNK     0     -16.136  11.911 -12.191  0.00  0.00     0.022 A 
HETATM   18  C   UNK     0     -15.558  10.968 -11.317  0.00  0.00    -0.027 A 
HETATM   19  C   UNK     0     -16.031  11.261 -10.064  0.00  0.00    -0.031 A 
HETATM   20  C   UNK     0     -15.626  10.505  -8.811  0.00  0.00     0.051 C 
HETATM   21  C   UNK     0     -15.891  11.855 -13.681  0.00  0.00     0.115 C 
HETATM   22  C   UNK     0     -17.040  12.219 -14.592  0.00  0.00     0.022 A 
HETATM   23  N   UNK     0     -18.335  11.904 -14.460  0.00  0.00    -0.361 N 
HETATM   24  C   UNK     0     -19.029  12.557 -15.415  0.00  0.00     0.021 A 
HETATM   25  C   UNK     0     -18.158  13.301 -16.186  0.00  0.00    -0.031 A 
HETATM   26  C   UNK     0     -18.455  14.164 -17.395  0.00  0.00     0.051 C 
HETATM   27  C   UNK     0     -16.879  13.102 -15.679  0.00  0.00    -0.027 A 
HETATM   28  C   UNK     0     -20.535  12.588 -15.612  0.00  0.00     0.115 C 
HETATM   29  H   UNK     0     -20.882  11.694 -12.826  0.00  0.00     0.165 HD
HETATM   30  H   UNK     0     -19.470  14.170 -10.985  0.00  0.00     0.165 HD
HETATM   31  H   UNK     0     -17.461  13.617 -11.893  0.00  0.00     0.165 HD
HETATM   32  H   UNK     0     -18.767  11.184 -13.717  0.00  0.00     0.165 HD
ENDROOT
BRANCH   6  33
HETATM   33  C   UNK     0     -23.392  15.727 -12.874  0.00  0.00     0.051 C 
BRANCH  33  34
HETATM   34  C   UNK     0     -24.852  15.341 -12.833  0.00  0.00     0.114 C 
BRANCH  34  35
HETATM   35  C   UNK     0     -25.572  16.213 -13.804  0.00  0.00     0.139 C 
HETATM   36  O   UNK     0     -24.976  17.188 -14.348  0.00  0.00    -0.650 OA
BRANCH  35  37
HETATM   37  O   UNK     0     -26.900  16.007 -14.155  0.00  0.00    -0.776 OA
HETATM   38  H   UNK     0     -27.580  15.661 -13.497  0.00  0.00     0.167 HD
ENDBRANCH  35  37
ENDBRANCH  34  35
ENDBRANCH  33  34
ENDBRANCH   6  33
BRANCH  27  39
HETATM   39  C   UNK     0     -15.660  13.689 -16.299  0.00  0.00     0.051 C 
BRANCH  39  40
HETATM   40  C   UNK     0     -15.134  14.937 -15.747  0.00  0.00     0.114 C 
BRANCH  40  41
HETATM   41  C   UNK     0     -15.761  15.612 -14.633  0.00  0.00     0.139 C 
HETATM   42  O   UNK     0     -15.444  15.421 -13.451  0.00  0.00    -0.650 OA
BRANCH  41  43
HETATM   43  O   UNK     0     -16.801  16.550 -14.890  0.00  0.00    -0.776 OA
HETATM   44  H   UNK     0     -16.499  17.391 -15.366  0.00  0.00     0.167 HD
ENDBRANCH  41  43
ENDBRANCH  40  41
ENDBRANCH  39  40
ENDBRANCH  27  39
BRANCH  11  45
HETATM   45  C   UNK     0     -19.711  11.383  -7.155  0.00  0.00     0.051 C 
BRANCH  45  46
HETATM   46  C   UNK     0     -19.809  12.153  -5.889  0.00  0.00     0.114 C 
BRANCH  46  47
HETATM   47  C   UNK     0     -20.795  11.450  -5.019  0.00  0.00     0.139 C 
HETATM   48  O   UNK     0     -21.899  11.978  -4.829  0.00  0.00    -0.650 OA
BRANCH  47  49
HETATM   49  O   UNK     0     -20.486  10.245  -4.439  0.00  0.00    -0.776 OA
HETATM   50  H   UNK     0     -20.052  10.182  -3.511  0.00  0.00     0.167 HD
ENDBRANCH  47  49
ENDBRANCH  46  47
ENDBRANCH  45  46
ENDBRANCH  11  45
BRANCH  18  51
HETATM   51  C   UNK     0     -14.593   9.862 -11.655  0.00  0.00     0.051 C 
BRANCH  51  52
HETATM   52  C   UNK     0     -15.433   8.609 -11.851  0.00  0.00     0.114 C 
BRANCH  52  53
HETATM   53  C   UNK     0     -15.056   7.882 -13.079  0.00  0.00     0.139 C 
HETATM   54  O   UNK     0     -13.961   8.103 -13.621  0.00  0.00    -0.650 OA
BRANCH  53  55
HETATM   55  O   UNK     0     -15.924   6.964 -13.619  0.00  0.00    -0.776 OA
HETATM   56  H   UNK     0     -15.969   6.694 -14.573  0.00  0.00     0.167 HD
ENDBRANCH  53  55
ENDBRANCH  52  53
ENDBRANCH  51  52
ENDBRANCH  18  51
TORSDOF 16
ENDMDL
MODEL 12
REMARK VINA RESULT:      -7.3      2.241      7.086
REMARK  16 active torsions:
REMARK  status: ('A' for Active; 'I' for Inactive)
REMARK    1  A    between atoms: C_6  and  C_7 
REMARK    2  A    between atoms: C_7  and  C_8 
REMARK    3  A    between atoms: C_8  and  C_9 
REMARK    4  A    between atoms: C_9  and  O_11 
REMARK    5  A    between atoms: C_16  and  C_17 
REMARK    6  A    between atoms: C_17  and  C_18 
REMARK    7  A    between atoms: C_18  and  C_19 
REMARK    8  A    between atoms: C_19  and  O_21 
REMARK    9  A    between atoms: C_28  and  C_29 
REMARK   10  A    between atoms: C_29  and  C_30 
REMARK   11  A    between atoms: C_30  and  C_31 
REMARK   12  A    between atoms: C_31  and  O_33 
REMARK   13  A    between atoms: C_42  and  C_43 
REMARK   14  A    between atoms: C_43  and  C_44 
REMARK   15  A    between atoms: C_44  and  C_45 
REMARK   16  A    between atoms: C_45  and  O_47 
ROOT
HETATM    1  C   UNK     0      -9.041   4.616   7.162  0.00  0.00     0.051 C 
HETATM    2  C   UNK     0     -10.492   4.986   7.395  0.00  0.00    -0.031 A 
HETATM    3  C   UNK     0     -11.200   6.091   6.952  0.00  0.00     0.021 A 
HETATM    4  N   UNK     0     -12.466   6.025   7.428  0.00  0.00    -0.361 N 
HETATM    5  C   UNK     0     -12.582   4.897   8.158  0.00  0.00     0.022 A 
HETATM    6  C   UNK     0     -11.365   4.224   8.161  0.00  0.00    -0.027 A 
HETATM    7  C   UNK     0     -13.791   4.311   8.819  0.00  0.00     0.115 C 
HETATM    8  C   UNK     0     -15.085   4.343   8.025  0.00  0.00     0.021 A 
HETATM    9  N   UNK     0     -15.258   4.198   6.702  0.00  0.00    -0.361 N 
HETATM   10  C   UNK     0     -16.565   4.391   6.427  0.00  0.00     0.022 A 
HETATM   11  C   UNK     0     -17.255   4.658   7.605  0.00  0.00    -0.027 A 
HETATM   12  C   UNK     0     -16.328   4.629   8.616  0.00  0.00    -0.031 A 
HETATM   13  C   UNK     0     -16.625   4.861  10.081  0.00  0.00     0.051 C 
HETATM   14  C   UNK     0     -17.205   4.384   5.041  0.00  0.00     0.115 C 
HETATM   15  C   UNK     0     -16.658   5.450   4.105  0.00  0.00     0.021 A 
HETATM   16  N   UNK     0     -15.383   5.620   3.709  0.00  0.00    -0.361 N 
HETATM   17  C   UNK     0     -15.303   6.711   2.944  0.00  0.00     0.022 A 
HETATM   18  C   UNK     0     -16.590   7.273   2.827  0.00  0.00    -0.027 A 
HETATM   19  C   UNK     0     -17.430   6.473   3.558  0.00  0.00    -0.031 A 
HETATM   20  C   UNK     0     -18.926   6.702   3.671  0.00  0.00     0.051 C 
HETATM   21  C   UNK     0     -14.097   7.370   2.314  0.00  0.00     0.115 C 
HETATM   22  C   UNK     0     -12.793   7.308   3.073  0.00  0.00     0.022 A 
HETATM   23  N   UNK     0     -12.591   7.444   4.391  0.00  0.00    -0.361 N 
HETATM   24  C   UNK     0     -11.297   7.172   4.652  0.00  0.00     0.021 A 
HETATM   25  C   UNK     0     -10.647   6.862   3.473  0.00  0.00    -0.031 A 
HETATM   26  C   UNK     0      -9.187   6.527   3.249  0.00  0.00     0.051 C 
HETATM   27  C   UNK     0     -11.583   6.942   2.449  0.00  0.00    -0.027 A 
HETATM   28  C   UNK     0     -10.617   7.105   6.008  0.00  0.00     0.115 C 
HETATM   29  H   UNK     0     -13.257   6.796   7.278  0.00  0.00     0.165 HD
HETATM   30  H   UNK     0     -14.468   3.910   5.966  0.00  0.00     0.165 HD
HETATM   31  H   UNK     0     -14.529   4.930   3.935  0.00  0.00     0.165 HD
HETATM   32  H   UNK     0     -13.352   7.778   5.144  0.00  0.00     0.165 HD
ENDROOT
BRANCH   6  33
HETATM   33  C   UNK     0     -10.973   2.930   8.829  0.00  0.00     0.051 C 
BRANCH  33  34
HETATM   34  C   UNK     0     -10.966   1.794   7.834  0.00  0.00     0.114 C 
BRANCH  34  35
HETATM   35  C   UNK     0      -9.573   1.268   7.767  0.00  0.00     0.139 C 
HETATM   36  O   UNK     0      -8.765   1.483   8.717  0.00  0.00    -0.650 OA
BRANCH  35  37
HETATM   37  O   UNK     0      -9.101   0.530   6.688  0.00  0.00    -0.776 OA
HETATM   38  H   UNK     0      -8.159   0.626   6.346  0.00  0.00     0.167 HD
ENDBRANCH  35  37
ENDBRANCH  34  35
ENDBRANCH  33  34
ENDBRANCH   6  33
BRANCH  27  39
HETATM   39  C   UNK     0     -11.236   6.743   1.015  0.00  0.00     0.051 C 
BRANCH  39  40
HETATM   40  C   UNK     0     -11.025   7.926   0.181  0.00  0.00     0.114 C 
BRANCH  40  41
HETATM   41  C   UNK     0     -12.114   8.596  -0.495  0.00  0.00     0.139 C 
HETATM   42  O   UNK     0     -12.532   8.264  -1.612  0.00  0.00    -0.650 OA
BRANCH  41  43
HETATM   43  O   UNK     0     -12.749   9.699   0.144  0.00  0.00    -0.776 OA
HETATM   44  H   UNK     0     -13.416  10.192  -0.437  0.00  0.00     0.167 HD
ENDBRANCH  41  43
ENDBRANCH  40  41
ENDBRANCH  39  40
ENDBRANCH  27  39
BRANCH  11  45
HETATM   45  C   UNK     0     -18.723   4.929   7.797  0.00  0.00     0.051 C 
BRANCH  45  46
HETATM   46  C   UNK     0     -19.503   3.750   8.253  0.00  0.00     0.114 C 
BRANCH  46  47
HETATM   47  C   UNK     0     -20.629   3.568   7.293  0.00  0.00     0.139 C 
HETATM   48  O   UNK     0     -20.556   2.653   6.461  0.00  0.00    -0.650 OA
BRANCH  47  49
HETATM   49  O   UNK     0     -21.724   4.395   7.329  0.00  0.00    -0.776 OA
HETATM   50  H   UNK     0     -21.647   5.407   7.176  0.00  0.00     0.167 HD
ENDBRANCH  47  49
ENDBRANCH  46  47
ENDBRANCH  45  46
ENDBRANCH  11  45
BRANCH  18  51
HETATM   51  C   UNK     0     -17.001   8.493   2.044  0.00  0.00     0.051 C 
BRANCH  51  52
HETATM   52  C   UNK     0     -17.216   8.028   0.612  0.00  0.00     0.114 C 
BRANCH  52  53
HETATM   53  C   UNK     0     -16.075   8.375  -0.256  0.00  0.00     0.139 C 
HETATM   54  O   UNK     0     -15.723   9.560  -0.377  0.00  0.00    -0.650 OA
BRANCH  53  55
HETATM   55  O   UNK     0     -15.407   7.382  -0.931  0.00  0.00    -0.776 OA
HETATM   56  H   UNK     0     -15.824   6.609  -1.394  0.00  0.00     0.167 HD
ENDBRANCH  53  55
ENDBRANCH  52  53
ENDBRANCH  51  52
ENDBRANCH  18  51
TORSDOF 16
ENDMDL
MODEL 13
REMARK VINA RESULT:      -7.3     22.976     28.396
REMARK  16 active torsions:
REMARK  status: ('A' for Active; 'I' for Inactive)
REMARK    1  A    between atoms: C_6  and  C_7 
REMARK    2  A    between atoms: C_7  and  C_8 
REMARK    3  A    between atoms: C_8  and  C_9 
REMARK    4  A    between atoms: C_9  and  O_11 
REMARK    5  A    between atoms: C_16  and  C_17 
REMARK    6  A    between atoms: C_17  and  C_18 
REMARK    7  A    between atoms: C_18  and  C_19 
REMARK    8  A    between atoms: C_19  and  O_21 
REMARK    9  A    between atoms: C_28  and  C_29 
REMARK   10  A    between atoms: C_29  and  C_30 
REMARK   11  A    between atoms: C_30  and  C_31 
REMARK   12  A    between atoms: C_31  and  O_33 
REMARK   13  A    between atoms: C_42  and  C_43 
REMARK   14  A    between atoms: C_43  and  C_44 
REMARK   15  A    between atoms: C_44  and  C_45 
REMARK   16  A    between atoms: C_45  and  O_47 
ROOT
HETATM    1  C   UNK     0     -38.028 -13.912   6.531  0.00  0.00     0.051 C 
HETATM    2  C   UNK     0     -37.416 -14.007   5.148  0.00  0.00    -0.031 A 
HETATM    3  C   UNK     0     -37.178 -13.005   4.221  0.00  0.00     0.021 A 
HETATM    4  N   UNK     0     -36.643 -13.555   3.105  0.00  0.00    -0.361 N 
HETATM    5  C   UNK     0     -36.526 -14.884   3.304  0.00  0.00     0.022 A 
HETATM    6  C   UNK     0     -37.004 -15.202   4.572  0.00  0.00    -0.027 A 
HETATM    7  C   UNK     0     -35.913 -15.929   2.425  0.00  0.00     0.115 C 
HETATM    8  C   UNK     0     -34.603 -15.566   1.748  0.00  0.00     0.021 A 
HETATM    9  N   UNK     0     -33.595 -14.818   2.223  0.00  0.00    -0.361 N 
HETATM   10  C   UNK     0     -32.675 -14.684   1.244  0.00  0.00     0.022 A 
HETATM   11  C   UNK     0     -33.098 -15.373   0.111  0.00  0.00    -0.027 A 
HETATM   12  C   UNK     0     -34.312 -15.931   0.421  0.00  0.00    -0.031 A 
HETATM   13  C   UNK     0     -35.148 -16.778  -0.511  0.00  0.00     0.051 C 
HETATM   14  C   UNK     0     -31.392 -13.862   1.320  0.00  0.00     0.115 C 
HETATM   15  C   UNK     0     -31.624 -12.379   1.560  0.00  0.00     0.021 A 
HETATM   16  N   UNK     0     -32.263 -11.805   2.598  0.00  0.00    -0.361 N 
HETATM   17  C   UNK     0     -32.316 -10.486   2.404  0.00  0.00     0.022 A 
HETATM   18  C   UNK     0     -31.674 -10.184   1.187  0.00  0.00    -0.027 A 
HETATM   19  C   UNK     0     -31.244 -11.378   0.669  0.00  0.00    -0.031 A 
HETATM   20  C   UNK     0     -30.465 -11.504  -0.627  0.00  0.00     0.051 C 
HETATM   21  C   UNK     0     -32.981  -9.408   3.231  0.00  0.00     0.115 C 
HETATM   22  C   UNK     0     -34.262  -9.769   3.946  0.00  0.00     0.022 A 
HETATM   23  N   UNK     0     -35.280 -10.514   3.499  0.00  0.00    -0.361 N 
HETATM   24  C   UNK     0     -36.147 -10.699   4.515  0.00  0.00     0.021 A 
HETATM   25  C   UNK     0     -35.681 -10.048   5.641  0.00  0.00    -0.031 A 
HETATM   26  C   UNK     0     -36.320  -9.932   7.009  0.00  0.00     0.051 C 
HETATM   27  C   UNK     0     -34.475  -9.445   5.301  0.00  0.00    -0.027 A 
HETATM   28  C   UNK     0     -37.405 -11.551   4.520  0.00  0.00     0.115 C 
HETATM   29  H   UNK     0     -36.387 -13.006   2.169  0.00  0.00     0.165 HD
HETATM   30  H   UNK     0     -33.506 -14.425   3.265  0.00  0.00     0.165 HD
HETATM   31  H   UNK     0     -32.642 -12.337   3.509  0.00  0.00     0.165 HD
HETATM   32  H   UNK     0     -35.419 -10.882   2.449  0.00  0.00     0.165 HD
ENDROOT
BRANCH   6  33
HETATM   33  C   UNK     0     -37.099 -16.537   5.266  0.00  0.00     0.051 C 
BRANCH  33  34
HETATM   34  C   UNK     0     -35.948 -16.724   6.226  0.00  0.00     0.114 C 
BRANCH  34  35
HETATM   35  C   UNK     0     -34.830 -17.352   5.465  0.00  0.00     0.139 C 
HETATM   36  O   UNK     0     -33.762 -16.707   5.253  0.00  0.00    -0.650 OA
BRANCH  35  37
HETATM   37  O   UNK     0     -34.899 -18.647   4.965  0.00  0.00    -0.776 OA
HETATM   38  H   UNK     0     -35.599 -18.924   4.296  0.00  0.00     0.167 HD
ENDBRANCH  35  37
ENDBRANCH  34  35
ENDBRANCH  33  34
ENDBRANCH   6  33
BRANCH  27  39
HETATM   39  C   UNK     0     -33.705  -8.587   6.242  0.00  0.00     0.051 C 
BRANCH  39  40
HETATM   40  C   UNK     0     -33.529  -7.174   5.909  0.00  0.00     0.114 C 
BRANCH  40  41
HETATM   41  C   UNK     0     -34.644  -6.258   5.826  0.00  0.00     0.139 C 
HETATM   42  O   UNK     0     -35.807  -6.615   5.591  0.00  0.00    -0.650 OA
BRANCH  41  43
HETATM   43  O   UNK     0     -34.412  -4.867   6.023  0.00  0.00    -0.776 OA
HETATM   44  H   UNK     0     -34.359  -4.326   5.169  0.00  0.00     0.167 HD
ENDBRANCH  41  43
ENDBRANCH  40  41
ENDBRANCH  39  40
ENDBRANCH  27  39
BRANCH  11  45
HETATM   45  C   UNK     0     -32.404 -15.515  -1.218  0.00  0.00     0.051 C 
BRANCH  45  46
HETATM   46  C   UNK     0     -32.226 -14.235  -1.949  0.00  0.00     0.114 C 
BRANCH  46  47
HETATM   47  C   UNK     0     -32.952 -14.362  -3.245  0.00  0.00     0.139 C 
HETATM   48  O   UNK     0     -32.719 -15.346  -3.961  0.00  0.00    -0.650 OA
BRANCH  47  49
HETATM   49  O   UNK     0     -33.859 -13.410  -3.639  0.00  0.00    -0.776 OA
HETATM   50  H   UNK     0     -33.936 -12.502  -3.166  0.00  0.00     0.167 HD
ENDBRANCH  47  49
ENDBRANCH  46  47
ENDBRANCH  45  46
ENDBRANCH  11  45
BRANCH  18  51
HETATM   51  C   UNK     0     -31.462  -8.829   0.562  0.00  0.00     0.051 C 
BRANCH  51  52
HETATM   52  C   UNK     0     -30.282  -8.203   1.291  0.00  0.00     0.114 C 
BRANCH  52  53
HETATM   53  C   UNK     0     -29.057  -8.219   0.469  0.00  0.00     0.139 C 
HETATM   54  O   UNK     0     -29.140  -8.263  -0.769  0.00  0.00    -0.650 OA
BRANCH  53  55
HETATM   55  O   UNK     0     -27.828  -8.189   1.081  0.00  0.00    -0.776 OA
HETATM   56  H   UNK     0     -27.624  -7.782   1.963  0.00  0.00     0.167 HD
ENDBRANCH  53  55
ENDBRANCH  52  53
ENDBRANCH  51  52
ENDBRANCH  18  51
TORSDOF 16
ENDMDL
MODEL 14
REMARK VINA RESULT:      -7.2      2.701      8.254
REMARK  16 active torsions:
REMARK  status: ('A' for Active; 'I' for Inactive)
REMARK    1  A    between atoms: C_6  and  C_7 
REMARK    2  A    between atoms: C_7  and  C_8 
REMARK    3  A    between atoms: C_8  and  C_9 
REMARK    4  A    between atoms: C_9  and  O_11 
REMARK    5  A    between atoms: C_16  and  C_17 
REMARK    6  A    between atoms: C_17  and  C_18 
REMARK    7  A    between atoms: C_18  and  C_19 
REMARK    8  A    between atoms: C_19  and  O_21 
REMARK    9  A    between atoms: C_28  and  C_29 
REMARK   10  A    between atoms: C_29  and  C_30 
REMARK   11  A    between atoms: C_30  and  C_31 
REMARK   12  A    between atoms: C_31  and  O_33 
REMARK   13  A    between atoms: C_42  and  C_43 
REMARK   14  A    between atoms: C_43  and  C_44 
REMARK   15  A    between atoms: C_44  and  C_45 
REMARK   16  A    between atoms: C_45  and  O_47 
ROOT
HETATM    1  C   UNK     0      -7.277   3.541   8.604  0.00  0.00     0.051 C 
HETATM    2  C   UNK     0      -8.171   3.628   7.384  0.00  0.00    -0.031 A 
HETATM    3  C   UNK     0      -9.398   3.027   7.147  0.00  0.00     0.021 A 
HETATM    4  N   UNK     0      -9.820   3.361   5.905  0.00  0.00    -0.361 N 
HETATM    5  C   UNK     0      -8.894   4.168   5.348  0.00  0.00     0.022 A 
HETATM    6  C   UNK     0      -7.847   4.353   6.245  0.00  0.00    -0.027 A 
HETATM    7  C   UNK     0      -8.921   4.884   4.033  0.00  0.00     0.115 C 
HETATM    8  C   UNK     0     -10.232   5.544   3.644  0.00  0.00     0.021 A 
HETATM    9  N   UNK     0     -11.130   6.151   4.436  0.00  0.00    -0.361 N 
HETATM   10  C   UNK     0     -12.186   6.508   3.675  0.00  0.00     0.022 A 
HETATM   11  C   UNK     0     -11.958   6.129   2.355  0.00  0.00    -0.027 A 
HETATM   12  C   UNK     0     -10.729   5.521   2.329  0.00  0.00    -0.031 A 
HETATM   13  C   UNK     0     -10.062   4.951   1.097  0.00  0.00     0.051 C 
HETATM   14  C   UNK     0     -13.470   7.171   4.168  0.00  0.00     0.115 C 
HETATM   15  C   UNK     0     -14.242   6.339   5.180  0.00  0.00     0.021 A 
HETATM   16  N   UNK     0     -13.810   5.885   6.371  0.00  0.00    -0.361 N 
HETATM   17  C   UNK     0     -14.764   5.135   6.926  0.00  0.00     0.022 A 
HETATM   18  C   UNK     0     -15.875   5.107   6.060  0.00  0.00    -0.027 A 
HETATM   19  C   UNK     0     -15.536   5.866   4.971  0.00  0.00    -0.031 A 
HETATM   20  C   UNK     0     -16.469   6.132   3.804  0.00  0.00     0.051 C 
HETATM   21  C   UNK     0     -14.751   4.344   8.215  0.00  0.00     0.115 C 
HETATM   22  C   UNK     0     -13.442   3.718   8.637  0.00  0.00     0.022 A 
HETATM   23  N   UNK     0     -12.528   3.111   7.870  0.00  0.00    -0.361 N 
HETATM   24  C   UNK     0     -11.452   2.833   8.634  0.00  0.00     0.021 A 
HETATM   25  C   UNK     0     -11.683   3.264   9.926  0.00  0.00    -0.031 A 
HETATM   26  C   UNK     0     -10.794   3.140  11.146  0.00  0.00     0.051 C 
HETATM   27  C   UNK     0     -12.951   3.833   9.953  0.00  0.00    -0.027 A 
HETATM   28  C   UNK     0     -10.128   2.232   8.192  0.00  0.00     0.115 C 
HETATM   29  H   UNK     0     -10.751   2.992   5.415  0.00  0.00     0.165 HD
HETATM   30  H   UNK     0     -10.999   6.374   5.523  0.00  0.00     0.165 HD
HETATM   31  H   UNK     0     -12.829   6.137   6.852  0.00  0.00     0.165 HD
HETATM   32  H   UNK     0     -12.650   2.833   6.791  0.00  0.00     0.165 HD
ENDROOT
BRANCH   6  33
HETATM   33  C   UNK     0      -6.578   5.155   6.103  0.00  0.00     0.051 C 
BRANCH  33  34
HETATM   34  C   UNK     0      -5.529   4.369   5.354  0.00  0.00     0.114 C 
BRANCH  34  35
HETATM   35  C   UNK     0      -4.321   4.293   6.225  0.00  0.00     0.139 C 
HETATM   36  O   UNK     0      -4.265   4.965   7.296  0.00  0.00    -0.650 OA
BRANCH  35  37
HETATM   37  O   UNK     0      -3.223   3.499   5.917  0.00  0.00    -0.776 OA
HETATM   38  H   UNK     0      -2.316   3.659   6.325  0.00  0.00     0.167 HD
ENDBRANCH  35  37
ENDBRANCH  34  35
ENDBRANCH  33  34
ENDBRANCH   6  33
BRANCH  27  39
HETATM   39  C   UNK     0     -13.582   4.349  11.198  0.00  0.00     0.051 C 
BRANCH  39  40
HETATM   40  C   UNK     0     -13.443   5.771  11.510  0.00  0.00     0.114 C 
BRANCH  40  41
HETATM   41  C   UNK     0     -13.567   6.797  10.499  0.00  0.00     0.139 C 
HETATM   42  O   UNK     0     -14.648   7.302  10.167  0.00  0.00    -0.650 OA
BRANCH  41  43
HETATM   43  O   UNK     0     -12.394   7.263   9.840  0.00  0.00    -0.776 OA
HETATM   44  H   UNK     0     -12.402   8.252   9.620  0.00  0.00     0.167 HD
ENDBRANCH  41  43
ENDBRANCH  40  41
ENDBRANCH  39  40
ENDBRANCH  27  39
BRANCH  11  45
HETATM   45  C   UNK     0     -12.844   6.323   1.154  0.00  0.00     0.051 C 
BRANCH  45  46
HETATM   46  C   UNK     0     -12.677   7.638   0.484  0.00  0.00     0.114 C 
BRANCH  46  47
HETATM   47  C   UNK     0     -13.899   7.872  -0.339  0.00  0.00     0.139 C 
HETATM   48  O   UNK     0     -14.381   6.920  -0.968  0.00  0.00    -0.650 OA
BRANCH  47  49
HETATM   49  O   UNK     0     -14.476   9.115  -0.400  0.00  0.00    -0.776 OA
HETATM   50  H   UNK     0     -14.041   9.894  -0.909  0.00  0.00     0.167 HD
ENDBRANCH  47  49
ENDBRANCH  46  47
ENDBRANCH  45  46
ENDBRANCH  11  45
BRANCH  18  51
HETATM   51  C   UNK     0     -17.196   4.413   6.270  0.00  0.00     0.051 C 
BRANCH  51  52
HETATM   52  C   UNK     0     -17.085   3.066   5.570  0.00  0.00     0.114 C 
BRANCH  52  53
HETATM   53  C   UNK     0     -17.351   1.944   6.491  0.00  0.00     0.139 C 
HETATM   54  O   UNK     0     -16.776   0.857   6.328  0.00  0.00    -0.650 OA
BRANCH  53  55
HETATM   55  O   UNK     0     -18.241   2.111   7.524  0.00  0.00    -0.776 OA
HETATM   56  H   UNK     0     -18.303   2.903   8.120  0.00  0.00     0.167 HD
ENDBRANCH  53  55
ENDBRANCH  52  53
ENDBRANCH  51  52
ENDBRANCH  18  51
TORSDOF 16
ENDMDL
MODEL 15
REMARK VINA RESULT:      -7.2      2.244      7.141
REMARK  16 active torsions:
REMARK  status: ('A' for Active; 'I' for Inactive)
REMARK    1  A    between atoms: C_6  and  C_7 
REMARK    2  A    between atoms: C_7  and  C_8 
REMARK    3  A    between atoms: C_8  and  C_9 
REMARK    4  A    between atoms: C_9  and  O_11 
REMARK    5  A    between atoms: C_16  and  C_17 
REMARK    6  A    between atoms: C_17  and  C_18 
REMARK    7  A    between atoms: C_18  and  C_19 
REMARK    8  A    between atoms: C_19  and  O_21 
REMARK    9  A    between atoms: C_28  and  C_29 
REMARK   10  A    between atoms: C_29  and  C_30 
REMARK   11  A    between atoms: C_30  and  C_31 
REMARK   12  A    between atoms: C_31  and  O_33 
REMARK   13  A    between atoms: C_42  and  C_43 
REMARK   14  A    between atoms: C_43  and  C_44 
REMARK   15  A    between atoms: C_44  and  C_45 
REMARK   16  A    between atoms: C_45  and  O_47 
ROOT
HETATM    1  C   UNK     0     -12.394   8.830  -0.395  0.00  0.00     0.051 C 
HETATM    2  C   UNK     0     -13.074   7.850   0.539  0.00  0.00    -0.031 A 
HETATM    3  C   UNK     0     -12.590   6.669   1.080  0.00  0.00     0.021 A 
HETATM    4  N   UNK     0     -13.559   6.101   1.837  0.00  0.00    -0.361 N 
HETATM    5  C   UNK     0     -14.647   6.898   1.796  0.00  0.00     0.022 A 
HETATM    6  C   UNK     0     -14.379   8.000   0.991  0.00  0.00    -0.027 A 
HETATM    7  C   UNK     0     -15.945   6.774   2.531  0.00  0.00     0.115 C 
HETATM    8  C   UNK     0     -15.865   6.373   3.993  0.00  0.00     0.021 A 
HETATM    9  N   UNK     0     -14.936   6.706   4.902  0.00  0.00    -0.361 N 
HETATM   10  C   UNK     0     -15.215   6.049   6.048  0.00  0.00     0.022 A 
HETATM   11  C   UNK     0     -16.361   5.278   5.875  0.00  0.00    -0.027 A 
HETATM   12  C   UNK     0     -16.776   5.478   4.583  0.00  0.00    -0.031 A 
HETATM   13  C   UNK     0     -17.993   4.843   3.947  0.00  0.00     0.051 C 
HETATM   14  C   UNK     0     -14.387   6.078   7.329  0.00  0.00     0.115 C 
HETATM   15  C   UNK     0     -12.969   5.559   7.157  0.00  0.00     0.021 A 
HETATM   16  N   UNK     0     -12.019   6.022   6.323  0.00  0.00    -0.361 N 
HETATM   17  C   UNK     0     -10.934   5.251   6.422  0.00  0.00     0.022 A 
HETATM   18  C   UNK     0     -11.185   4.242   7.373  0.00  0.00    -0.027 A 
HETATM   19  C   UNK     0     -12.462   4.447   7.827  0.00  0.00    -0.031 A 
HETATM   20  C   UNK     0     -13.123   3.598   8.897  0.00  0.00     0.051 C 
HETATM   21  C   UNK     0      -9.633   5.302   5.654  0.00  0.00     0.115 C 
HETATM   22  C   UNK     0      -9.692   5.742   4.210  0.00  0.00     0.022 A 
HETATM   23  N   UNK     0     -10.607   5.429   3.283  0.00  0.00    -0.361 N 
HETATM   24  C   UNK     0     -10.354   6.155   2.176  0.00  0.00     0.021 A 
HETATM   25  C   UNK     0      -9.242   6.947   2.390  0.00  0.00    -0.031 A 
HETATM   26  C   UNK     0      -8.551   7.898   1.436  0.00  0.00     0.051 C 
HETATM   27  C   UNK     0      -8.800   6.700   3.685  0.00  0.00    -0.027 A 
HETATM   28  C   UNK     0     -11.170   6.214   0.896  0.00  0.00     0.115 C 
HETATM   29  H   UNK     0     -13.480   5.121   2.362  0.00  0.00     0.165 HD
HETATM   30  H   UNK     0     -14.110   7.444   4.754  0.00  0.00     0.165 HD
HETATM   31  H   UNK     0     -12.099   6.942   5.686  0.00  0.00     0.165 HD
HETATM   32  H   UNK     0     -11.416   4.660   3.388  0.00  0.00     0.165 HD
ENDROOT
BRANCH   6  33
HETATM   33  C   UNK     0     -15.258   9.167   0.621  0.00  0.00     0.051 C 
BRANCH  33  34
HETATM   34  C   UNK     0     -16.373   8.728  -0.298  0.00  0.00     0.114 C 
BRANCH  34  35
HETATM   35  C   UNK     0     -17.650   9.252   0.266  0.00  0.00     0.139 C 
HETATM   36  O   UNK     0     -17.721  10.445   0.681  0.00  0.00    -0.650 OA
BRANCH  35  37
HETATM   37  O   UNK     0     -18.800   8.478   0.361  0.00  0.00    -0.776 OA
HETATM   38  H   UNK     0     -18.973   7.871   1.146  0.00  0.00     0.167 HD
ENDBRANCH  35  37
ENDBRANCH  34  35
ENDBRANCH  33  34
ENDBRANCH   6  33
BRANCH  27  39
HETATM   39  C   UNK     0      -7.574   7.321   4.256  0.00  0.00     0.051 C 
BRANCH  39  40
HETATM   40  C   UNK     0      -6.314   6.586   4.156  0.00  0.00     0.114 C 
BRANCH  40  41
HETATM   41  C   UNK     0      -5.942   5.562   5.107  0.00  0.00     0.139 C 
HETATM   42  O   UNK     0      -5.191   5.764   6.071  0.00  0.00    -0.650 OA
BRANCH  41  43
HETATM   43  O   UNK     0      -6.457   4.245   4.940  0.00  0.00    -0.776 OA
HETATM   44  H   UNK     0      -7.436   4.208   4.682  0.00  0.00     0.167 HD
ENDBRANCH  41  43
ENDBRANCH  40  41
ENDBRANCH  39  40
ENDBRANCH  27  39
BRANCH  11  45
HETATM   45  C   UNK     0     -17.056   4.387   6.869  0.00  0.00     0.051 C 
BRANCH  45  46
HETATM   46  C   UNK     0     -16.401   3.068   7.062  0.00  0.00     0.114 C 
BRANCH  46  47
HETATM   47  C   UNK     0     -17.340   2.029   6.551  0.00  0.00     0.139 C 
HETATM   48  O   UNK     0     -18.537   2.324   6.424  0.00  0.00    -0.650 OA
BRANCH  47  49
HETATM   49  O   UNK     0     -16.892   0.773   6.230  0.00  0.00    -0.776 OA
HETATM   50  H   UNK     0     -17.269  -0.072   6.677  0.00  0.00     0.167 HD
ENDBRANCH  47  49
ENDBRANCH  46  47
ENDBRANCH  45  46
ENDBRANCH  11  45
BRANCH  18  51
HETATM   51  C   UNK     0     -10.251   3.156   7.839  0.00  0.00     0.051 C 
BRANCH  51  52
HETATM   52  C   UNK     0     -10.611   1.913   7.038  0.00  0.00     0.114 C 
BRANCH  52  53
HETATM   53  C   UNK     0      -9.599   1.611   6.007  0.00  0.00     0.139 C 
HETATM   54  O   UNK     0      -8.450   2.067   6.112  0.00  0.00    -0.650 OA
BRANCH  53  55
HETATM   55  O   UNK     0      -9.939   0.828   4.931  0.00  0.00    -0.776 OA
HETATM   56  H   UNK     0      -9.569  -0.070   4.723  0.00  0.00     0.167 HD
ENDBRANCH  53  55
ENDBRANCH  52  53
ENDBRANCH  51  52
ENDBRANCH  18  51
TORSDOF 16
ENDMDL
MODEL 16
REMARK VINA RESULT:      -7.1      2.565      7.349
REMARK  16 active torsions:
REMARK  status: ('A' for Active; 'I' for Inactive)
REMARK    1  A    between atoms: C_6  and  C_7 
REMARK    2  A    between atoms: C_7  and  C_8 
REMARK    3  A    between atoms: C_8  and  C_9 
REMARK    4  A    between atoms: C_9  and  O_11 
REMARK    5  A    between atoms: C_16  and  C_17 
REMARK    6  A    between atoms: C_17  and  C_18 
REMARK    7  A    between atoms: C_18  and  C_19 
REMARK    8  A    between atoms: C_19  and  O_21 
REMARK    9  A    between atoms: C_28  and  C_29 
REMARK   10  A    between atoms: C_29  and  C_30 
REMARK   11  A    between atoms: C_30  and  C_31 
REMARK   12  A    between atoms: C_31  and  O_33 
REMARK   13  A    between atoms: C_42  and  C_43 
REMARK   14  A    between atoms: C_43  and  C_44 
REMARK   15  A    between atoms: C_44  and  C_45 
REMARK   16  A    between atoms: C_45  and  O_47 
ROOT
HETATM    1  C   UNK     0      -9.339   7.518  -0.406  0.00  0.00     0.051 C 
HETATM    2  C   UNK     0     -10.541   7.020   0.371  0.00  0.00    -0.031 A 
HETATM    3  C   UNK     0     -10.710   5.832   1.064  0.00  0.00     0.021 A 
HETATM    4  N   UNK     0     -11.961   5.797   1.582  0.00  0.00    -0.361 N 
HETATM    5  C   UNK     0     -12.590   6.942   1.241  0.00  0.00     0.022 A 
HETATM    6  C   UNK     0     -11.731   7.728   0.481  0.00  0.00    -0.027 A 
HETATM    7  C   UNK     0     -13.945   7.437   1.637  0.00  0.00     0.115 C 
HETATM    8  C   UNK     0     -14.344   7.244   3.090  0.00  0.00     0.021 A 
HETATM    9  N   UNK     0     -13.572   7.311   4.185  0.00  0.00    -0.361 N 
HETATM   10  C   UNK     0     -14.329   6.980   5.253  0.00  0.00     0.022 A 
HETATM   11  C   UNK     0     -15.627   6.702   4.835  0.00  0.00    -0.027 A 
HETATM   12  C   UNK     0     -15.644   6.866   3.473  0.00  0.00    -0.031 A 
HETATM   13  C   UNK     0     -16.852   6.675   2.584  0.00  0.00     0.051 C 
HETATM   14  C   UNK     0     -13.848   6.861   6.696  0.00  0.00     0.115 C 
HETATM   15  C   UNK     0     -12.768   5.811   6.901  0.00  0.00     0.021 A 
HETATM   16  N   UNK     0     -11.561   5.747   6.308  0.00  0.00    -0.361 N 
HETATM   17  C   UNK     0     -10.937   4.636   6.703  0.00  0.00     0.022 A 
HETATM   18  C   UNK     0     -11.773   3.947   7.605  0.00  0.00    -0.027 A 
HETATM   19  C   UNK     0     -12.916   4.694   7.721  0.00  0.00    -0.031 A 
HETATM   20  C   UNK     0     -14.075   4.328   8.630  0.00  0.00     0.051 C 
HETATM   21  C   UNK     0      -9.602   4.068   6.279  0.00  0.00     0.115 C 
HETATM   22  C   UNK     0      -9.172   4.291   4.848  0.00  0.00     0.022 A 
HETATM   23  N   UNK     0      -9.920   4.235   3.738  0.00  0.00    -0.361 N 
HETATM   24  C   UNK     0      -9.166   4.643   2.698  0.00  0.00     0.021 A 
HETATM   25  C   UNK     0      -7.899   4.960   3.147  0.00  0.00    -0.031 A 
HETATM   26  C   UNK     0      -6.695   5.424   2.353  0.00  0.00     0.051 C 
HETATM   27  C   UNK     0      -7.878   4.742   4.519  0.00  0.00    -0.027 A 
HETATM   28  C   UNK     0      -9.600   4.838   1.255  0.00  0.00     0.115 C 
HETATM   29  H   UNK     0     -12.405   4.948   2.150  0.00  0.00     0.165 HD
HETATM   30  H   UNK     0     -12.504   7.639   4.214  0.00  0.00     0.165 HD
HETATM   31  H   UNK     0     -11.120   6.526   5.633  0.00  0.00     0.165 HD
HETATM   32  H   UNK     0     -10.977   3.865   3.672  0.00  0.00     0.165 HD
ENDROOT
BRANCH   6  33
HETATM   33  C   UNK     0     -11.953   9.083  -0.143  0.00  0.00     0.051 C 
BRANCH  33  34
HETATM   34  C   UNK     0     -11.357  10.172   0.718  0.00  0.00     0.114 C 
BRANCH  34  35
HETATM   35  C   UNK     0     -12.369  10.526   1.755  0.00  0.00     0.139 C 
HETATM   36  O   UNK     0     -13.385  11.212   1.445  0.00  0.00    -0.650 OA
BRANCH  35  37
HETATM   37  O   UNK     0     -12.252  10.128   3.081  0.00  0.00    -0.776 OA
HETATM   38  H   UNK     0     -11.819  10.712   3.778  0.00  0.00     0.167 HD
ENDBRANCH  35  37
ENDBRANCH  34  35
ENDBRANCH  33  34
ENDBRANCH   6  33
BRANCH  27  39
HETATM   39  C   UNK     0      -6.653   4.908   5.348  0.00  0.00     0.051 C 
BRANCH  39  40
HETATM   40  C   UNK     0      -5.872   3.717   5.679  0.00  0.00     0.114 C 
BRANCH  40  41
HETATM   41  C   UNK     0      -6.293   2.778   6.695  0.00  0.00     0.139 C 
HETATM   42  O   UNK     0      -5.982   2.879   7.890  0.00  0.00    -0.650 OA
BRANCH  41  43
HETATM   43  O   UNK     0      -7.108   1.672   6.320  0.00  0.00    -0.776 OA
HETATM   44  H   UNK     0      -7.030   1.406   5.346  0.00  0.00     0.167 HD
ENDBRANCH  41  43
ENDBRANCH  40  41
ENDBRANCH  39  40
ENDBRANCH  27  39
BRANCH  11  45
HETATM   45  C   UNK     0     -16.817   6.299   5.663  0.00  0.00     0.051 C 
BRANCH  45  46
HETATM   46  C   UNK     0     -16.789   4.885   6.117  0.00  0.00     0.114 C 
BRANCH  46  47
HETATM   47  C   UNK     0     -17.500   4.076   5.086  0.00  0.00     0.139 C 
HETATM   48  O   UNK     0     -18.731   3.963   5.167  0.00  0.00    -0.650 OA
BRANCH  47  49
HETATM   49  O   UNK     0     -16.807   3.468   4.069  0.00  0.00    -0.776 OA
HETATM   50  H   UNK     0     -16.970   2.489   3.808  0.00  0.00     0.167 HD
ENDBRANCH  47  49
ENDBRANCH  46  47
ENDBRANCH  45  46
ENDBRANCH  11  45
BRANCH  18  51
HETATM   51  C   UNK     0     -11.489   2.658   8.331  0.00  0.00     0.051 C 
BRANCH  51  52
HETATM   52  C   UNK     0     -10.590   3.020   9.504  0.00  0.00     0.114 C 
BRANCH  52  53
HETATM   53  C   UNK     0      -9.226   2.482   9.337  0.00  0.00     0.139 C 
HETATM   54  O   UNK     0      -9.031   1.496   8.610  0.00  0.00    -0.650 OA
BRANCH  53  55
HETATM   55  O   UNK     0      -8.176   3.078   9.993  0.00  0.00    -0.776 OA
HETATM   56  H   UNK     0      -8.200   3.954  10.459  0.00  0.00     0.167 HD
ENDBRANCH  53  55
ENDBRANCH  52  53
ENDBRANCH  51  52
ENDBRANCH  18  51
TORSDOF 16
ENDMDL
MODEL 17
REMARK VINA RESULT:      -7.1      1.494      7.789
REMARK  16 active torsions:
REMARK  status: ('A' for Active; 'I' for Inactive)
REMARK    1  A    between atoms: C_6  and  C_7 
REMARK    2  A    between atoms: C_7  and  C_8 
REMARK    3  A    between atoms: C_8  and  C_9 
REMARK    4  A    between atoms: C_9  and  O_11 
REMARK    5  A    between atoms: C_16  and  C_17 
REMARK    6  A    between atoms: C_17  and  C_18 
REMARK    7  A    between atoms: C_18  and  C_19 
REMARK    8  A    between atoms: C_19  and  O_21 
REMARK    9  A    between atoms: C_28  and  C_29 
REMARK   10  A    between atoms: C_29  and  C_30 
REMARK   11  A    between atoms: C_30  and  C_31 
REMARK   12  A    between atoms: C_31  and  O_33 
REMARK   13  A    between atoms: C_42  and  C_43 
REMARK   14  A    between atoms: C_43  and  C_44 
REMARK   15  A    between atoms: C_44  and  C_45 
REMARK   16  A    between atoms: C_45  and  O_47 
ROOT
HETATM    1  C   UNK     0     -16.000   9.351  -0.170  0.00  0.00     0.051 C 
HETATM    2  C   UNK     0     -15.997   8.336   0.955  0.00  0.00    -0.031 A 
HETATM    3  C   UNK     0     -15.212   7.205   1.118  0.00  0.00     0.021 A 
HETATM    4  N   UNK     0     -15.576   6.576   2.261  0.00  0.00    -0.361 N 
HETATM    5  C   UNK     0     -16.570   7.286   2.834  0.00  0.00     0.022 A 
HETATM    6  C   UNK     0     -16.860   8.392   2.042  0.00  0.00    -0.027 A 
HETATM    7  C   UNK     0     -17.256   7.074   4.147  0.00  0.00     0.115 C 
HETATM    8  C   UNK     0     -16.372   6.704   5.326  0.00  0.00     0.021 A 
HETATM    9  N   UNK     0     -15.127   7.122   5.601  0.00  0.00    -0.361 N 
HETATM   10  C   UNK     0     -14.697   6.464   6.698  0.00  0.00     0.022 A 
HETATM   11  C   UNK     0     -15.695   5.604   7.147  0.00  0.00    -0.027 A 
HETATM   12  C   UNK     0     -16.754   5.751   6.287  0.00  0.00    -0.031 A 
HETATM   13  C   UNK     0     -18.070   5.013   6.388  0.00  0.00     0.051 C 
HETATM   14  C   UNK     0     -13.314   6.578   7.333  0.00  0.00     0.115 C 
HETATM   15  C   UNK     0     -12.177   6.167   6.412  0.00  0.00     0.021 A 
HETATM   16  N   UNK     0     -11.863   6.689   5.211  0.00  0.00    -0.361 N 
HETATM   17  C   UNK     0     -10.842   6.005   4.689  0.00  0.00     0.022 A 
HETATM   18  C   UNK     0     -10.467   4.995   5.597  0.00  0.00    -0.027 A 
HETATM   19  C   UNK     0     -11.310   5.108   6.672  0.00  0.00    -0.031 A 
HETATM   20  C   UNK     0     -11.226   4.227   7.906  0.00  0.00     0.051 C 
HETATM   21  C   UNK     0     -10.167   6.144   3.344  0.00  0.00     0.115 C 
HETATM   22  C   UNK     0     -11.026   6.554   2.171  0.00  0.00     0.022 A 
HETATM   23  N   UNK     0     -12.270   6.157   1.874  0.00  0.00    -0.361 N 
HETATM   24  C   UNK     0     -12.707   6.882   0.825  0.00  0.00     0.021 A 
HETATM   25  C   UNK     0     -11.716   7.761   0.430  0.00  0.00    -0.031 A 
HETATM   26  C   UNK     0     -11.719   8.747  -0.719  0.00  0.00     0.051 C 
HETATM   27  C   UNK     0     -10.630   7.570   1.277  0.00  0.00    -0.027 A 
HETATM   28  C   UNK     0     -14.085   6.857   0.187  0.00  0.00     0.115 C 
HETATM   29  H   UNK     0     -15.155   5.613   2.634  0.00  0.00     0.165 HD
HETATM   30  H   UNK     0     -14.568   7.919   5.053  0.00  0.00     0.165 HD
HETATM   31  H   UNK     0     -12.340   7.588   4.743  0.00  0.00     0.165 HD
HETATM   32  H   UNK     0     -12.836   5.329   2.375  0.00  0.00     0.165 HD
ENDROOT
BRANCH   6  33
HETATM   33  C   UNK     0     -17.883   9.482   2.236  0.00  0.00     0.051 C 
BRANCH  33  34
HETATM   34  C   UNK     0     -19.169   9.142   1.521  0.00  0.00     0.114 C 
BRANCH  34  35
HETATM   35  C   UNK     0     -19.548  10.326   0.697  0.00  0.00     0.139 C 
HETATM   36  O   UNK     0     -18.824  11.363   0.701  0.00  0.00    -0.650 OA
BRANCH  35  37
HETATM   37  O   UNK     0     -20.686  10.350  -0.101  0.00  0.00    -0.776 OA
HETATM   38  H   UNK     0     -21.317   9.567  -0.155  0.00  0.00     0.167 HD
ENDBRANCH  35  37
ENDBRANCH  34  35
ENDBRANCH  33  34
ENDBRANCH   6  33
BRANCH  27  39
HETATM   39  C   UNK     0      -9.339   8.293   1.115  0.00  0.00     0.051 C 
BRANCH  39  40
HETATM   40  C   UNK     0      -8.241   7.609   0.433  0.00  0.00     0.114 C 
BRANCH  40  41
HETATM   41  C   UNK     0      -7.823   7.966  -0.904  0.00  0.00     0.139 C 
HETATM   42  O   UNK     0      -7.434   9.099  -1.218  0.00  0.00    -0.650 OA
BRANCH  41  43
HETATM   43  O   UNK     0      -7.854   6.976  -1.926  0.00  0.00    -0.776 OA
HETATM   44  H   UNK     0      -7.610   7.317  -2.848  0.00  0.00     0.167 HD
ENDBRANCH  41  43
ENDBRANCH  40  41
ENDBRANCH  39  40
ENDBRANCH  27  39
BRANCH  11  45
HETATM   45  C   UNK     0     -15.678   4.678   8.333  0.00  0.00     0.051 C 
BRANCH  45  46
HETATM   46  C   UNK     0     -16.133   5.306   9.600  0.00  0.00     0.114 C 
BRANCH  46  47
HETATM   47  C   UNK     0     -16.990   4.310  10.304  0.00  0.00     0.139 C 
HETATM   48  O   UNK     0     -17.861   3.714   9.655  0.00  0.00    -0.650 OA
BRANCH  47  49
HETATM   49  O   UNK     0     -16.819   4.058  11.642  0.00  0.00    -0.776 OA
HETATM   50  H   UNK     0     -15.958   4.314  12.140  0.00  0.00     0.167 HD
ENDBRANCH  47  49
ENDBRANCH  46  47
ENDBRANCH  45  46
ENDBRANCH  11  45
BRANCH  18  51
HETATM   51  C   UNK     0      -9.352   3.991   5.457  0.00  0.00     0.051 C 
BRANCH  51  52
HETATM   52  C   UNK     0      -9.887   2.882   4.564  0.00  0.00     0.114 C 
BRANCH  52  53
HETATM   53  C   UNK     0      -9.863   1.571   5.242  0.00  0.00     0.139 C 
HETATM   54  O   UNK     0      -9.487   1.488   6.422  0.00  0.00    -0.650 OA
BRANCH  53  55
HETATM   55  O   UNK     0     -10.254   0.446   4.558  0.00  0.00    -0.776 OA
HETATM   56  H   UNK     0     -10.939  -0.209   4.855  0.00  0.00     0.167 HD
ENDBRANCH  53  55
ENDBRANCH  52  53
ENDBRANCH  51  52
ENDBRANCH  18  51
TORSDOF 16
ENDMDL
MODEL 18
REMARK VINA RESULT:      -7.1      1.761      7.578
REMARK  16 active torsions:
REMARK  status: ('A' for Active; 'I' for Inactive)
REMARK    1  A    between atoms: C_6  and  C_7 
REMARK    2  A    between atoms: C_7  and  C_8 
REMARK    3  A    between atoms: C_8  and  C_9 
REMARK    4  A    between atoms: C_9  and  O_11 
REMARK    5  A    between atoms: C_16  and  C_17 
REMARK    6  A    between atoms: C_17  and  C_18 
REMARK    7  A    between atoms: C_18  and  C_19 
REMARK    8  A    between atoms: C_19  and  O_21 
REMARK    9  A    between atoms: C_28  and  C_29 
REMARK   10  A    between atoms: C_29  and  C_30 
REMARK   11  A    between atoms: C_30  and  C_31 
REMARK   12  A    between atoms: C_31  and  O_33 
REMARK   13  A    between atoms: C_42  and  C_43 
REMARK   14  A    between atoms: C_43  and  C_44 
REMARK   15  A    between atoms: C_44  and  C_45 
REMARK   16  A    between atoms: C_45  and  O_47 
ROOT
HETATM    1  C   UNK     0     -16.559   9.199  -0.856  0.00  0.00     0.051 C 
HETATM    2  C   UNK     0     -16.667   8.236   0.309  0.00  0.00    -0.031 A 
HETATM    3  C   UNK     0     -15.863   7.155   0.634  0.00  0.00     0.021 A 
HETATM    4  N   UNK     0     -16.354   6.558   1.746  0.00  0.00    -0.361 N 
HETATM    5  C   UNK     0     -17.448   7.241   2.142  0.00  0.00     0.022 A 
HETATM    6  C   UNK     0     -17.675   8.295   1.263  0.00  0.00    -0.027 A 
HETATM    7  C   UNK     0     -18.300   7.052   3.359  0.00  0.00     0.115 C 
HETATM    8  C   UNK     0     -17.573   6.779   4.664  0.00  0.00     0.021 A 
HETATM    9  N   UNK     0     -16.398   7.273   5.085  0.00  0.00    -0.361 N 
HETATM   10  C   UNK     0     -16.095   6.686   6.263  0.00  0.00     0.022 A 
HETATM   11  C   UNK     0     -17.107   5.797   6.614  0.00  0.00    -0.027 A 
HETATM   12  C   UNK     0     -18.041   5.851   5.611  0.00  0.00    -0.031 A 
HETATM   13  C   UNK     0     -19.324   5.052   5.568  0.00  0.00     0.051 C 
HETATM   14  C   UNK     0     -14.820   6.899   7.074  0.00  0.00     0.115 C 
HETATM   15  C   UNK     0     -13.549   6.506   6.338  0.00  0.00     0.021 A 
HETATM   16  N   UNK     0     -13.095   6.991   5.167  0.00  0.00    -0.361 N 
HETATM   17  C   UNK     0     -11.982   6.338   4.824  0.00  0.00     0.022 A 
HETATM   18  C   UNK     0     -11.692   5.390   5.825  0.00  0.00    -0.027 A 
HETATM   19  C   UNK     0     -12.680   5.506   6.768  0.00  0.00    -0.031 A 
HETATM   20  C   UNK     0     -12.729   4.686   8.044  0.00  0.00     0.051 C 
HETATM   21  C   UNK     0     -11.133   6.452   3.579  0.00  0.00     0.115 C 
HETATM   22  C   UNK     0     -11.838   6.766   2.280  0.00  0.00     0.022 A 
HETATM   23  N   UNK     0     -13.010   6.293   1.836  0.00  0.00    -0.361 N 
HETATM   24  C   UNK     0     -13.329   6.948   0.702  0.00  0.00     0.021 A 
HETATM   25  C   UNK     0     -12.334   7.859   0.403  0.00  0.00    -0.031 A 
HETATM   26  C   UNK     0     -12.222   8.792  -0.785  0.00  0.00     0.051 C 
HETATM   27  C   UNK     0     -11.369   7.760   1.398  0.00  0.00    -0.027 A 
HETATM   28  C   UNK     0     -14.603   6.825  -0.116  0.00  0.00     0.115 C 
HETATM   29  H   UNK     0     -15.946   5.636   2.221  0.00  0.00     0.165 HD
HETATM   30  H   UNK     0     -15.804   8.073   4.579  0.00  0.00     0.165 HD
HETATM   31  H   UNK     0     -13.542   7.843   4.593  0.00  0.00     0.165 HD
HETATM   32  H   UNK     0     -13.603   5.460   2.297  0.00  0.00     0.165 HD
ENDROOT
BRANCH   6  33
HETATM   33  C   UNK     0     -18.763   9.339   1.260  0.00  0.00     0.051 C 
BRANCH  33  34
HETATM   34  C   UNK     0     -18.262  10.634   1.854  0.00  0.00     0.114 C 
BRANCH  34  35
HETATM   35  C   UNK     0     -18.323  10.499   3.337  0.00  0.00     0.139 C 
HETATM   36  O   UNK     0     -19.436  10.552   3.937  0.00  0.00    -0.650 OA
BRANCH  35  37
HETATM   37  O   UNK     0     -17.190  10.309   4.119  0.00  0.00    -0.776 OA
HETATM   38  H   UNK     0     -16.273  10.206   3.715  0.00  0.00     0.167 HD
ENDBRANCH  35  37
ENDBRANCH  34  35
ENDBRANCH  33  34
ENDBRANCH   6  33
BRANCH  27  39
HETATM   39  C   UNK     0     -10.102   8.541   1.378  0.00  0.00     0.051 C 
BRANCH  39  40
HETATM   40  C   UNK     0      -8.920   7.930   0.770  0.00  0.00     0.114 C 
BRANCH  40  41
HETATM   41  C   UNK     0      -8.245   8.521  -0.364  0.00  0.00     0.139 C 
HETATM   42  O   UNK     0      -8.739   9.416  -1.064  0.00  0.00    -0.650 OA
BRANCH  41  43
HETATM   43  O   UNK     0      -6.942   8.063  -0.708  0.00  0.00    -0.776 OA
HETATM   44  H   UNK     0      -6.723   7.132  -0.374  0.00  0.00     0.167 HD
ENDBRANCH  41  43
ENDBRANCH  40  41
ENDBRANCH  39  40
ENDBRANCH  27  39
BRANCH  11  45
HETATM   45  C   UNK     0     -17.213   4.926   7.836  0.00  0.00     0.051 C 
BRANCH  45  46
HETATM   46  C   UNK     0     -16.564   3.597   7.692  0.00  0.00     0.114 C 
BRANCH  46  47
HETATM   47  C   UNK     0     -17.650   2.594   7.503  0.00  0.00     0.139 C 
HETATM   48  O   UNK     0     -17.481   1.686   6.677  0.00  0.00    -0.650 OA
BRANCH  47  49
HETATM   49  O   UNK     0     -18.814   2.673   8.226  0.00  0.00    -0.776 OA
HETATM   50  H   UNK     0     -19.176   1.878   8.765  0.00  0.00     0.167 HD
ENDBRANCH  47  49
ENDBRANCH  46  47
ENDBRANCH  45  46
ENDBRANCH  11  45
BRANCH  18  51
HETATM   51  C   UNK     0     -10.524   4.439   5.890  0.00  0.00     0.051 C 
BRANCH  51  52
HETATM   52  C   UNK     0      -9.426   5.165   6.653  0.00  0.00     0.114 C 
BRANCH  52  53
HETATM   53  C   UNK     0      -8.910   4.356   7.774  0.00  0.00     0.139 C 
HETATM   54  O   UNK     0      -9.226   4.640   8.941  0.00  0.00    -0.650 OA
BRANCH  53  55
HETATM   55  O   UNK     0      -8.078   3.294   7.520  0.00  0.00    -0.776 OA
HETATM   56  H   UNK     0      -8.361   2.357   7.350  0.00  0.00     0.167 HD
ENDBRANCH  53  55
ENDBRANCH  52  53
ENDBRANCH  51  52
ENDBRANCH  18  51
TORSDOF 16
ENDMDL
MODEL 19
REMARK VINA RESULT:      -7.1      2.132      7.415
REMARK  16 active torsions:
REMARK  status: ('A' for Active; 'I' for Inactive)
REMARK    1  A    between atoms: C_6  and  C_7 
REMARK    2  A    between atoms: C_7  and  C_8 
REMARK    3  A    between atoms: C_8  and  C_9 
REMARK    4  A    between atoms: C_9  and  O_11 
REMARK    5  A    between atoms: C_16  and  C_17 
REMARK    6  A    between atoms: C_17  and  C_18 
REMARK    7  A    between atoms: C_18  and  C_19 
REMARK    8  A    between atoms: C_19  and  O_21 
REMARK    9  A    between atoms: C_28  and  C_29 
REMARK   10  A    between atoms: C_29  and  C_30 
REMARK   11  A    between atoms: C_30  and  C_31 
REMARK   12  A    between atoms: C_31  and  O_33 
REMARK   13  A    between atoms: C_42  and  C_43 
REMARK   14  A    between atoms: C_43  and  C_44 
REMARK   15  A    between atoms: C_44  and  C_45 
REMARK   16  A    between atoms: C_45  and  O_47 
ROOT
HETATM    1  C   UNK     0     -14.997   9.184  -0.044  0.00  0.00     0.051 C 
HETATM    2  C   UNK     0     -15.260   8.048   0.924  0.00  0.00    -0.031 A 
HETATM    3  C   UNK     0     -14.444   6.982   1.272  0.00  0.00     0.021 A 
HETATM    4  N   UNK     0     -15.103   6.192   2.152  0.00  0.00    -0.361 N 
HETATM    5  C   UNK     0     -16.317   6.734   2.379  0.00  0.00     0.022 A 
HETATM    6  C   UNK     0     -16.449   7.895   1.624  0.00  0.00    -0.027 A 
HETATM    7  C   UNK     0     -17.387   6.307   3.333  0.00  0.00     0.115 C 
HETATM    8  C   UNK     0     -16.935   5.882   4.719  0.00  0.00     0.021 A 
HETATM    9  N   UNK     0     -15.931   6.377   5.459  0.00  0.00    -0.361 N 
HETATM   10  C   UNK     0     -15.833   5.636   6.583  0.00  0.00     0.022 A 
HETATM   11  C   UNK     0     -16.807   4.641   6.571  0.00  0.00    -0.027 A 
HETATM   12  C   UNK     0     -17.505   4.791   5.400  0.00  0.00    -0.031 A 
HETATM   13  C   UNK     0     -18.667   3.930   4.959  0.00  0.00     0.051 C 
HETATM   14  C   UNK     0     -14.788   5.800   7.683  0.00  0.00     0.115 C 
HETATM   15  C   UNK     0     -13.357   5.607   7.208  0.00  0.00     0.021 A 
HETATM   16  N   UNK     0     -12.711   6.294   6.247  0.00  0.00    -0.361 N 
HETATM   17  C   UNK     0     -11.493   5.773   6.079  0.00  0.00     0.022 A 
HETATM   18  C   UNK     0     -11.335   4.702   6.981  0.00  0.00    -0.027 A 
HETATM   19  C   UNK     0     -12.509   4.609   7.682  0.00  0.00    -0.031 A 
HETATM   20  C   UNK     0     -12.752   3.600   8.790  0.00  0.00     0.051 C 
HETATM   21  C   UNK     0     -10.412   6.131   5.086  0.00  0.00     0.115 C 
HETATM   22  C   UNK     0     -10.848   6.598   3.717  0.00  0.00     0.022 A 
HETATM   23  N   UNK     0     -11.847   6.126   2.959  0.00  0.00    -0.361 N 
HETATM   24  C   UNK     0     -11.976   6.927   1.882  0.00  0.00     0.021 A 
HETATM   25  C   UNK     0     -11.032   7.934   1.943  0.00  0.00    -0.031 A 
HETATM   26  C   UNK     0     -10.757   9.045   0.952  0.00  0.00     0.051 C 
HETATM   27  C   UNK     0     -10.297   7.744   3.109  0.00  0.00    -0.027 A 
HETATM   28  C   UNK     0     -13.027   6.852   0.788  0.00  0.00     0.115 C 
HETATM   29  H   UNK     0     -14.721   5.234   2.576  0.00  0.00     0.165 HD
HETATM   30  H   UNK     0     -15.321   7.281   5.215  0.00  0.00     0.165 HD
HETATM   31  H   UNK     0     -13.104   7.195   5.709  0.00  0.00     0.165 HD
HETATM   32  H   UNK     0     -12.442   5.197   3.155  0.00  0.00     0.165 HD
ENDROOT
BRANCH   6  33
HETATM   33  C   UNK     0     -17.606   8.857   1.518  0.00  0.00     0.051 C 
BRANCH  33  34
HETATM   34  C   UNK     0     -17.464   9.978   2.520  0.00  0.00     0.114 C 
BRANCH  34  35
HETATM   35  C   UNK     0     -18.792  10.165   3.171  0.00  0.00     0.139 C 
HETATM   36  O   UNK     0     -19.450   9.163   3.576  0.00  0.00    -0.650 OA
BRANCH  35  37
HETATM   37  O   UNK     0     -19.361  11.418   3.366  0.00  0.00    -0.776 OA
HETATM   38  H   UNK     0     -20.223  11.688   2.922  0.00  0.00     0.167 HD
ENDBRANCH  35  37
ENDBRANCH  34  35
ENDBRANCH  33  34
ENDBRANCH   6  33
BRANCH  27  39
HETATM   39  C   UNK     0      -9.136   8.596   3.483  0.00  0.00     0.051 C 
BRANCH  39  40
HETATM   40  C   UNK     0      -7.972   8.610   2.598  0.00  0.00     0.114 C 
BRANCH  40  41
HETATM   41  C   UNK     0      -6.938   7.602   2.668  0.00  0.00     0.139 C 
HETATM   42  O   UNK     0      -6.948   6.669   3.483  0.00  0.00    -0.650 OA
BRANCH  41  43
HETATM   43  O   UNK     0      -5.843   7.670   1.761  0.00  0.00    -0.776 OA
HETATM   44  H   UNK     0      -6.110   7.793   0.791  0.00  0.00     0.167 HD
ENDBRANCH  41  43
ENDBRANCH  40  41
ENDBRANCH  39  40
ENDBRANCH  27  39
BRANCH  11  45
HETATM   45  C   UNK     0     -17.089   3.587   7.607  0.00  0.00     0.051 C 
BRANCH  45  46
HETATM   46  C   UNK     0     -18.168   3.948   8.561  0.00  0.00     0.114 C 
BRANCH  46  47
HETATM   47  C   UNK     0     -19.027   2.742   8.733  0.00  0.00     0.139 C 
HETATM   48  O   UNK     0     -18.797   1.981   9.684  0.00  0.00    -0.650 OA
BRANCH  47  49
HETATM   49  O   UNK     0     -20.050   2.477   7.858  0.00  0.00    -0.776 OA
HETATM   50  H   UNK     0     -21.037   2.573   8.127  0.00  0.00     0.167 HD
ENDBRANCH  47  49
ENDBRANCH  46  47
ENDBRANCH  45  46
ENDBRANCH  11  45
BRANCH  18  51
HETATM   51  C   UNK     0     -10.123   3.828   7.177  0.00  0.00     0.051 C 
BRANCH  51  52
HETATM   52  C   UNK     0     -10.297   2.642   6.240  0.00  0.00     0.114 C 
BRANCH  52  53
HETATM   53  C   UNK     0      -9.086   1.799   6.190  0.00  0.00     0.139 C 
HETATM   54  O   UNK     0      -8.016   2.273   5.775  0.00  0.00    -0.650 OA
BRANCH  53  55
HETATM   55  O   UNK     0      -9.152   0.490   6.601  0.00  0.00    -0.776 OA
HETATM   56  H   UNK     0      -8.765   0.120   7.438  0.00  0.00     0.167 HD
ENDBRANCH  53  55
ENDBRANCH  52  53
ENDBRANCH  51  52
ENDBRANCH  18  51
TORSDOF 16
ENDMDL
MODEL 20
REMARK VINA RESULT:      -7.0      2.589      4.513
REMARK  16 active torsions:
REMARK  status: ('A' for Active; 'I' for Inactive)
REMARK    1  A    between atoms: C_6  and  C_7 
REMARK    2  A    between atoms: C_7  and  C_8 
REMARK    3  A    between atoms: C_8  and  C_9 
REMARK    4  A    between atoms: C_9  and  O_11 
REMARK    5  A    between atoms: C_16  and  C_17 
REMARK    6  A    between atoms: C_17  and  C_18 
REMARK    7  A    between atoms: C_18  and  C_19 
REMARK    8  A    between atoms: C_19  and  O_21 
REMARK    9  A    between atoms: C_28  and  C_29 
REMARK   10  A    between atoms: C_29  and  C_30 
REMARK   11  A    between atoms: C_30  and  C_31 
REMARK   12  A    between atoms: C_31  and  O_33 
REMARK   13  A    between atoms: C_42  and  C_43 
REMARK   14  A    between atoms: C_43  and  C_44 
REMARK   15  A    between atoms: C_44  and  C_45 
REMARK   16  A    between atoms: C_45  and  O_47 
ROOT
HETATM    1  C   UNK     0     -16.913   4.840   6.871  0.00  0.00     0.051 C 
HETATM    2  C   UNK     0     -16.127   5.696   5.898  0.00  0.00    -0.031 A 
HETATM    3  C   UNK     0     -14.950   6.399   6.098  0.00  0.00     0.021 A 
HETATM    4  N   UNK     0     -14.625   7.050   4.956  0.00  0.00    -0.361 N 
HETATM    5  C   UNK     0     -15.565   6.770   4.030  0.00  0.00     0.022 A 
HETATM    6  C   UNK     0     -16.521   5.927   4.587  0.00  0.00    -0.027 A 
HETATM    7  C   UNK     0     -15.625   7.160   2.586  0.00  0.00     0.115 C 
HETATM    8  C   UNK     0     -14.329   7.067   1.800  0.00  0.00     0.021 A 
HETATM    9  N   UNK     0     -13.343   6.164   1.918  0.00  0.00    -0.361 N 
HETATM   10  C   UNK     0     -12.344   6.523   1.083  0.00  0.00     0.022 A 
HETATM   11  C   UNK     0     -12.701   7.684   0.403  0.00  0.00    -0.027 A 
HETATM   12  C   UNK     0     -13.950   8.032   0.850  0.00  0.00    -0.031 A 
HETATM   13  C   UNK     0     -14.743   9.232   0.382  0.00  0.00     0.051 C 
HETATM   14  C   UNK     0     -10.998   5.820   0.933  0.00  0.00     0.115 C 
HETATM   15  C   UNK     0     -10.173   5.791   2.209  0.00  0.00     0.021 A 
HETATM   16  N   UNK     0     -10.517   5.262   3.398  0.00  0.00    -0.361 N 
HETATM   17  C   UNK     0      -9.547   5.504   4.283  0.00  0.00     0.022 A 
HETATM   18  C   UNK     0      -8.517   6.217   3.637  0.00  0.00    -0.027 A 
HETATM   19  C   UNK     0      -8.921   6.389   2.338  0.00  0.00    -0.031 A 
HETATM   20  C   UNK     0      -8.084   7.083   1.279  0.00  0.00     0.051 C 
HETATM   21  C   UNK     0      -9.477   5.187   5.759  0.00  0.00     0.115 C 
HETATM   22  C   UNK     0     -10.767   5.232   6.545  0.00  0.00     0.022 A 
HETATM   23  N   UNK     0     -11.768   6.117   6.446  0.00  0.00    -0.361 N 
HETATM   24  C   UNK     0     -12.782   5.697   7.228  0.00  0.00     0.021 A 
HETATM   25  C   UNK     0     -12.423   4.518   7.853  0.00  0.00    -0.031 A 
HETATM   26  C   UNK     0     -13.206   3.691   8.851  0.00  0.00     0.051 C 
HETATM   27  C   UNK     0     -11.136   4.201   7.432  0.00  0.00    -0.027 A 
HETATM   28  C   UNK     0     -14.161   6.317   7.375  0.00  0.00     0.115 C 
HETATM   29  H   UNK     0     -13.755   7.735   4.824  0.00  0.00     0.165 HD
HETATM   30  H   UNK     0     -13.369   5.244   2.552  0.00  0.00     0.165 HD
HETATM   31  H   UNK     0     -11.441   4.663   3.606  0.00  0.00     0.165 HD
HETATM   32  H   UNK     0     -11.750   7.070   5.856  0.00  0.00     0.165 HD
ENDROOT
BRANCH   6  33
HETATM   33  C   UNK     0     -17.766   5.335   3.976  0.00  0.00     0.051 C 
BRANCH  33  34
HETATM   34  C   UNK     0     -18.984   6.143   4.355  0.00  0.00     0.114 C 
BRANCH  34  35
HETATM   35  C   UNK     0     -19.184   7.173   3.295  0.00  0.00     0.139 C 
HETATM   36  O   UNK     0     -19.342   8.389   3.609  0.00  0.00    -0.650 OA
BRANCH  35  37
HETATM   37  O   UNK     0     -19.204   6.861   1.941  0.00  0.00    -0.776 OA
HETATM   38  H   UNK     0     -19.890   7.248   1.313  0.00  0.00     0.167 HD
ENDBRANCH  35  37
ENDBRANCH  34  35
ENDBRANCH  33  34
ENDBRANCH   6  33
BRANCH  27  39
HETATM   39  C   UNK     0     -10.380   3.029   7.949  0.00  0.00     0.051 C 
BRANCH  39  40
HETATM   40  C   UNK     0     -10.429   1.780   7.189  0.00  0.00     0.114 C 
BRANCH  40  41
HETATM   41  C   UNK     0      -9.536   1.515   6.084  0.00  0.00     0.139 C 
HETATM   42  O   UNK     0      -8.354   1.886   6.056  0.00  0.00    -0.650 OA
BRANCH  41  43
HETATM   43  O   UNK     0     -10.023   0.791   4.959  0.00  0.00    -0.776 OA
HETATM   44  H   UNK     0     -10.771   0.142   5.171  0.00  0.00     0.167 HD
ENDBRANCH  41  43
ENDBRANCH  40  41
ENDBRANCH  39  40
ENDBRANCH  27  39
BRANCH  11  45
HETATM   45  C   UNK     0     -11.917   8.449  -0.630  0.00  0.00     0.051 C 
BRANCH  45  46
HETATM   46  C   UNK     0     -10.670   9.065  -0.110  0.00  0.00     0.114 C 
BRANCH  46  47
HETATM   47  C   UNK     0     -11.067  10.047   0.940  0.00  0.00     0.139 C 
HETATM   48  O   UNK     0     -11.683  11.066   0.595  0.00  0.00    -0.650 OA
BRANCH  47  49
HETATM   49  O   UNK     0     -10.757   9.830   2.258  0.00  0.00    -0.776 OA
HETATM   50  H   UNK     0     -10.835  10.571   2.966  0.00  0.00     0.167 HD
ENDBRANCH  47  49
ENDBRANCH  46  47
ENDBRANCH  45  46
ENDBRANCH  11  45
BRANCH  18  51
HETATM   51  C   UNK     0      -7.211   6.690   4.220  0.00  0.00     0.051 C 
BRANCH  51  52
HETATM   52  C   UNK     0      -6.206   5.575   3.973  0.00  0.00     0.114 C 
BRANCH  52  53
HETATM   53  C   UNK     0      -5.709   4.993   5.235  0.00  0.00     0.139 C 
HETATM   54  O   UNK     0      -4.832   5.580   5.887  0.00  0.00    -0.650 OA
BRANCH  53  55
HETATM   55  O   UNK     0      -6.221   3.798   5.679  0.00  0.00    -0.776 OA
HETATM   56  H   UNK     0      -7.182   3.553   5.720  0.00  0.00     0.167 HD
ENDBRANCH  53  55
ENDBRANCH  52  53
ENDBRANCH  51  52
ENDBRANCH  18  51
TORSDOF 16
ENDMDL
