MODEL 1
REMARK VINA RESULT:     -10.3      0.000      0.000
REMARK  28 active torsions:
REMARK  status: ('A' for Active; 'I' for Inactive)
REMARK    1  A    between atoms: C_2  and  O_3 
REMARK    2  A    between atoms: C_2  and  C_4 
REMARK    3  A    between atoms: C_4  and  C_5 
REMARK    4  A    between atoms: C_5  and  C_6 
REMARK    5  A    between atoms: C_7  and  C_8 
REMARK    6  A    between atoms: C_8  and  C_9 
REMARK    7  A    between atoms: C_9  and  O_11 
REMARK    8  A    between atoms: C_28  and  C_29 
REMARK    9  A    between atoms: C_29  and  C_30 
REMARK   10  A    between atoms: C_30  and  O_32 
REMARK   11  A    between atoms: C_33  and  C_34 
REMARK   12  A    between atoms: C_34  and  C_35 
REMARK   13  A    between atoms: C_35  and  C_36 
REMARK   14  A    between atoms: C_36  and  O_38 
REMARK   15  A    between atoms: C_39  and  C_40 
REMARK   16  A    between atoms: C_40  and  C_41 
REMARK   17  A    between atoms: C_41  and  C_42 
REMARK   18  A    between atoms: C_42  and  O_44 
REMARK   19  A    between atoms: C_45  and  C_46 
REMARK   20  A    between atoms: C_46  and  C_47 
REMARK   21  A    between atoms: C_47  and  O_49 
REMARK   22  A    between atoms: C_50  and  C_51 
REMARK   23  A    between atoms: C_51  and  C_52 
REMARK   24  A    between atoms: C_52  and  O_54 
REMARK   25  A    between atoms: C_55  and  C_56 
REMARK   26  A    between atoms: C_56  and  C_57 
REMARK   27  A    between atoms: C_57  and  C_58 
REMARK   28  A    between atoms: C_58  and  O_60 
ROOT
ATOM      1  O   UNK d   0      37.161   1.058  47.902  0.00  0.00    -0.650 OA
ATOM      2  C   UNK d   0      36.962  -0.093  48.351  0.00  0.00     0.139 C 
ENDROOT
BRANCH   2   3
ATOM      3  O   UNK d   0      36.822  -0.272  49.706  0.00  0.00    -0.776 OA
ATOM      4  H   UNK d   0      36.643   0.520  50.327  0.00  0.00     0.167 HD
ENDBRANCH   2   3
BRANCH   2   5
ATOM      5  C   UNK d   0      36.878  -1.255  47.422  0.00  0.00     0.115 C 
BRANCH   5   6
ATOM      6  C   UNK d   0      35.503  -1.863  47.476  0.00  0.00     0.052 C 
BRANCH   6   7
ATOM      7  C   UNK d   0      34.747  -1.707  46.179  0.00  0.00    -0.020 A 
ATOM      8  C   UNK d   0      34.110  -0.649  45.749  0.00  0.00    -0.011 A 
ATOM      9  C   UNK d   0      33.529  -0.973  44.457  0.00  0.00     0.067 A 
ATOM     10  C   UNK d   0      32.769  -0.297  43.489  0.00  0.00     0.062 C 
ATOM     11  N   UNK d   0      33.858  -2.252  44.180  0.00  0.00    -0.248 NA
ATOM     12  C   UNK d   0      32.535  -0.692  42.168  0.00  0.00     0.041 A 
ATOM     13  N   UNK d   0      32.235  -1.895  41.642  0.00  0.00    -0.355 N 
ATOM     14  C   UNK d   0      32.667   0.259  41.140  0.00  0.00    -0.022 A 
ATOM     15  C   UNK d   0      32.181  -1.733  40.307  0.00  0.00     0.042 A 
ATOM     16  H   UNK d   0      32.045  -2.835  42.206  0.00  0.00     0.166 HD
ATOM     17  C   UNK d   0      31.906  -2.664  39.285  0.00  0.00     0.062 C 
ATOM     18  C   UNK d   0      32.447  -0.396  39.954  0.00  0.00    -0.013 A 
ATOM     19  C   UNK d   0      32.383  -3.940  39.129  0.00  0.00     0.067 A 
ATOM     20  N   UNK d   0      33.040  -4.471  40.164  0.00  0.00    -0.248 NA
ATOM     21  C   UNK d   0      32.380  -4.935  38.070  0.00  0.00    -0.011 A 
ATOM     22  C   UNK d   0      33.468  -5.739  39.858  0.00  0.00     0.066 A 
ATOM     23  C   UNK d   0      34.135  -6.424  40.862  0.00  0.00     0.062 C 
ATOM     24  C   UNK d   0      33.020  -5.984  38.500  0.00  0.00    -0.020 A 
ATOM     25  C   UNK d   0      34.349  -6.015  42.187  0.00  0.00     0.041 A 
ATOM     26  N   UNK d   0      34.662  -4.822  42.708  0.00  0.00    -0.355 N 
ATOM     27  C   UNK d   0      34.212  -6.969  43.219  0.00  0.00    -0.022 A 
ATOM     28  C   UNK d   0      34.725  -4.982  44.040  0.00  0.00     0.042 A 
ATOM     29  H   UNK d   0      34.863  -3.881  42.140  0.00  0.00     0.166 HD
ATOM     30  C   UNK d   0      35.006  -4.068  45.067  0.00  0.00     0.062 C 
ATOM     31  C   UNK d   0      34.447  -6.324  44.395  0.00  0.00    -0.013 A 
ATOM     32  C   UNK d   0      34.591  -2.751  45.176  0.00  0.00     0.066 A 
BRANCH   8  33
ATOM     33  C   UNK d   0      33.985   0.649  46.437  0.00  0.00     0.151 C 
BRANCH  33  34
ATOM     34  C   UNK d   0      33.450   1.710  45.564  0.00  0.00     0.143 C 
ATOM     35  O   UNK d   0      34.207   2.407  44.874  0.00  0.00    -0.650 OA
BRANCH  34  36
ATOM     36  O   UNK d   0      32.093   1.926  45.517  0.00  0.00    -0.776 OA
ATOM     37  H   UNK d   0      31.552   1.744  44.661  0.00  0.00     0.167 HD
ENDBRANCH  34  36
ENDBRANCH  33  34
ENDBRANCH   8  33
BRANCH  31  38
ATOM     38  C   UNK d   0      34.398  -6.939  45.774  0.00  0.00     0.151 C 
BRANCH  38  39
ATOM     39  C   UNK d   0      33.049  -7.085  46.276  0.00  0.00     0.143 C 
ATOM     40  O   UNK d   0      32.142  -6.283  45.991  0.00  0.00    -0.650 OA
BRANCH  39  41
ATOM     41  O   UNK d   0      32.740  -8.159  47.110  0.00  0.00    -0.776 OA
ATOM     42  H   UNK d   0      32.340  -8.990  46.664  0.00  0.00     0.167 HD
ENDBRANCH  39  41
ENDBRANCH  38  39
ENDBRANCH  31  38
BRANCH  27  43
ATOM     43  C   UNK d   0      33.875  -8.436  43.129  0.00  0.00     0.052 C 
BRANCH  43  44
ATOM     44  C   UNK d   0      32.421  -8.722  43.325  0.00  0.00     0.115 C 
BRANCH  44  45
ATOM     45  C   UNK d   0      32.331 -10.091  43.895  0.00  0.00     0.139 C 
ATOM     46  O   UNK d   0      31.819 -10.994  43.187  0.00  0.00    -0.650 OA
BRANCH  45  47
ATOM     47  O   UNK d   0      32.787 -10.408  45.156  0.00  0.00    -0.776 OA
ATOM     48  H   UNK d   0      33.579  -9.919  45.604  0.00  0.00     0.167 HD
ENDBRANCH  45  47
ENDBRANCH  44  45
ENDBRANCH  43  44
ENDBRANCH  27  43
BRANCH  24  49
ATOM     49  C   UNK d   0      33.222  -7.242  37.762  0.00  0.00     0.052 C 
BRANCH  49  50
ATOM     50  C   UNK d   0      34.693  -7.503  37.563  0.00  0.00     0.115 C 
BRANCH  50  51
ATOM     51  C   UNK d   0      35.404  -6.631  36.639  0.00  0.00     0.139 C 
ATOM     52  O   UNK d   0      36.647  -6.473  36.678  0.00  0.00    -0.650 OA
BRANCH  51  53
ATOM     53  O   UNK d   0      34.697  -5.935  35.670  0.00  0.00    -0.776 OA
ATOM     54  H   UNK d   0      34.420  -4.990  35.871  0.00  0.00     0.167 HD
ENDBRANCH  51  53
ENDBRANCH  50  51
ENDBRANCH  49  50
ENDBRANCH  24  49
BRANCH  21  55
ATOM     55  C   UNK d   0      31.734  -4.735  36.739  0.00  0.00     0.151 C 
BRANCH  55  56
ATOM     56  C   UNK d   0      30.283  -4.969  36.789  0.00  0.00     0.143 C 
ATOM     57  O   UNK d   0      29.783  -6.111  36.780  0.00  0.00    -0.650 OA
BRANCH  56  58
ATOM     58  O   UNK d   0      29.448  -3.855  36.849  0.00  0.00    -0.776 OA
ATOM     59  H   UNK d   0      28.608  -3.906  36.244  0.00  0.00     0.167 HD
ENDBRANCH  56  58
ENDBRANCH  55  56
ENDBRANCH  21  55
BRANCH  18  60
ATOM     60  C   UNK d   0      32.499   0.245  38.589  0.00  0.00     0.151 C 
BRANCH  60  61
ATOM     61  C   UNK d   0      31.100   0.427  38.175  0.00  0.00     0.143 C 
ATOM     62  O   UNK d   0      30.444  -0.306  37.433  0.00  0.00    -0.650 OA
BRANCH  61  63
ATOM     63  O   UNK d   0      30.460   1.575  38.700  0.00  0.00    -0.776 OA
ATOM     64  H   UNK d   0      29.603   1.500  39.218  0.00  0.00     0.167 HD
ENDBRANCH  61  63
ENDBRANCH  60  61
ENDBRANCH  18  60
BRANCH  14  65
ATOM     65  C   UNK d   0      32.886   1.744  41.199  0.00  0.00     0.052 C 
BRANCH  65  66
ATOM     66  C   UNK d   0      31.666   2.496  41.597  0.00  0.00     0.115 C 
BRANCH  66  67
ATOM     67  C   UNK d   0      31.794   3.802  42.181  0.00  0.00     0.139 C 
ATOM     68  O   UNK d   0      31.620   4.830  41.428  0.00  0.00    -0.650 OA
BRANCH  67  69
ATOM     69  O   UNK d   0      32.093   4.119  43.505  0.00  0.00    -0.776 OA
ATOM     70  H   UNK d   0      31.354   4.612  44.026  0.00  0.00     0.167 HD
ENDBRANCH  67  69
ENDBRANCH  66  67
ENDBRANCH  65  66
ENDBRANCH  14  65
ENDBRANCH   6   7
ENDBRANCH   5   6
ENDBRANCH   2   5
TORSDOF 28
ENDMDL
MODEL 2
REMARK VINA RESULT:     -10.0      1.309      1.664
REMARK  28 active torsions:
REMARK  status: ('A' for Active; 'I' for Inactive)
REMARK    1  A    between atoms: C_2  and  O_3 
REMARK    2  A    between atoms: C_2  and  C_4 
REMARK    3  A    between atoms: C_4  and  C_5 
REMARK    4  A    between atoms: C_5  and  C_6 
REMARK    5  A    between atoms: C_7  and  C_8 
REMARK    6  A    between atoms: C_8  and  C_9 
REMARK    7  A    between atoms: C_9  and  O_11 
REMARK    8  A    between atoms: C_28  and  C_29 
REMARK    9  A    between atoms: C_29  and  C_30 
REMARK   10  A    between atoms: C_30  and  O_32 
REMARK   11  A    between atoms: C_33  and  C_34 
REMARK   12  A    between atoms: C_34  and  C_35 
REMARK   13  A    between atoms: C_35  and  C_36 
REMARK   14  A    between atoms: C_36  and  O_38 
REMARK   15  A    between atoms: C_39  and  C_40 
REMARK   16  A    between atoms: C_40  and  C_41 
REMARK   17  A    between atoms: C_41  and  C_42 
REMARK   18  A    between atoms: C_42  and  O_44 
REMARK   19  A    between atoms: C_45  and  C_46 
REMARK   20  A    between atoms: C_46  and  C_47 
REMARK   21  A    between atoms: C_47  and  O_49 
REMARK   22  A    between atoms: C_50  and  C_51 
REMARK   23  A    between atoms: C_51  and  C_52 
REMARK   24  A    between atoms: C_52  and  O_54 
REMARK   25  A    between atoms: C_55  and  C_56 
REMARK   26  A    between atoms: C_56  and  C_57 
REMARK   27  A    between atoms: C_57  and  C_58 
REMARK   28  A    between atoms: C_58  and  O_60 
ROOT
ATOM      1  O   UNK d   0      37.811  -3.700  47.022  0.00  0.00    -0.650 OA
ATOM      2  C   UNK d   0      37.951  -2.457  46.992  0.00  0.00     0.139 C 
ENDROOT
BRANCH   2   3
ATOM      3  O   UNK d   0      39.121  -1.923  46.507  0.00  0.00    -0.776 OA
ATOM      4  H   UNK d   0      39.677  -1.275  47.068  0.00  0.00     0.167 HD
ENDBRANCH   2   3
BRANCH   2   5
ATOM      5  C   UNK d   0      36.858  -1.569  47.478  0.00  0.00     0.115 C 
BRANCH   5   6
ATOM      6  C   UNK d   0      35.544  -2.301  47.449  0.00  0.00     0.052 C 
BRANCH   6   7
ATOM      7  C   UNK d   0      34.787  -2.084  46.161  0.00  0.00    -0.020 A 
ATOM      8  C   UNK d   0      34.152  -1.005  45.780  0.00  0.00    -0.011 A 
ATOM      9  C   UNK d   0      33.569  -1.269  44.475  0.00  0.00     0.067 A 
ATOM     10  C   UNK d   0      32.810  -0.547  43.540  0.00  0.00     0.062 C 
ATOM     11  N   UNK d   0      33.894  -2.535  44.139  0.00  0.00    -0.248 NA
ATOM     12  C   UNK d   0      32.574  -0.880  42.202  0.00  0.00     0.041 A 
ATOM     13  N   UNK d   0      32.270  -2.057  41.623  0.00  0.00    -0.355 N 
ATOM     14  C   UNK d   0      32.708   0.116  41.219  0.00  0.00    -0.022 A 
ATOM     15  C   UNK d   0      32.216  -1.835  40.296  0.00  0.00     0.042 A 
ATOM     16  H   UNK d   0      32.079  -3.022  42.143  0.00  0.00     0.166 HD
ATOM     17  C   UNK d   0      31.937  -2.717  39.233  0.00  0.00     0.062 C 
ATOM     18  C   UNK d   0      32.485  -0.484  40.004  0.00  0.00    -0.013 A 
ATOM     19  C   UNK d   0      32.411  -3.986  39.019  0.00  0.00     0.067 A 
ATOM     20  N   UNK d   0      33.067  -4.565  40.027  0.00  0.00    -0.248 NA
ATOM     21  C   UNK d   0      32.404  -4.931  37.914  0.00  0.00    -0.011 A 
ATOM     22  C   UNK d   0      33.491  -5.819  39.663  0.00  0.00     0.066 A 
ATOM     23  C   UNK d   0      34.158  -6.551  40.634  0.00  0.00     0.062 C 
ATOM     24  C   UNK d   0      33.042  -6.000  38.296  0.00  0.00    -0.020 A 
ATOM     25  C   UNK d   0      34.374  -6.203  41.977  0.00  0.00     0.041 A 
ATOM     26  N   UNK d   0      34.691  -5.037  42.551  0.00  0.00    -0.355 N 
ATOM     27  C   UNK d   0      34.235  -7.203  42.964  0.00  0.00    -0.022 A 
ATOM     28  C   UNK d   0      34.754  -5.258  43.874  0.00  0.00     0.042 A 
ATOM     29  H   UNK d   0      34.893  -4.071  42.027  0.00  0.00     0.166 HD
ATOM     30  C   UNK d   0      35.039  -4.392  44.942  0.00  0.00     0.062 C 
ATOM     31  C   UNK d   0      34.473  -6.613  44.167  0.00  0.00    -0.013 A 
ATOM     32  C   UNK d   0      34.627  -3.080  45.111  0.00  0.00     0.066 A 
BRANCH   8  33
ATOM     33  C   UNK d   0      34.031   0.260  46.527  0.00  0.00     0.151 C 
BRANCH  33  34
ATOM     34  C   UNK d   0      33.501   1.361  45.703  0.00  0.00     0.143 C 
ATOM     35  O   UNK d   0      34.251   2.033  44.980  0.00  0.00    -0.650 OA
BRANCH  34  36
ATOM     36  O   UNK d   0      32.156   1.646  45.740  0.00  0.00    -0.776 OA
ATOM     37  H   UNK d   0      31.716   2.041  46.583  0.00  0.00     0.167 HD
ENDBRANCH  34  36
ENDBRANCH  33  34
ENDBRANCH   8  33
BRANCH  31  38
ATOM     38  C   UNK d   0      34.424  -7.291  45.517  0.00  0.00     0.151 C 
BRANCH  38  39
ATOM     39  C   UNK d   0      33.080  -7.394  46.045  0.00  0.00     0.143 C 
ATOM     40  O   UNK d   0      32.268  -6.454  45.986  0.00  0.00    -0.650 OA
BRANCH  39  41
ATOM     41  O   UNK d   0      32.668  -8.584  46.643  0.00  0.00    -0.776 OA
ATOM     42  H   UNK d   0      32.757  -9.437  46.083  0.00  0.00     0.167 HD
ENDBRANCH  39  41
ENDBRANCH  38  39
ENDBRANCH  31  38
BRANCH  27  43
ATOM     43  C   UNK d   0      33.894  -8.664  42.807  0.00  0.00     0.052 C 
BRANCH  43  44
ATOM     44  C   UNK d   0      32.452  -8.964  43.056  0.00  0.00     0.115 C 
BRANCH  44  45
ATOM     45  C   UNK d   0      32.393 -10.348  43.595  0.00  0.00     0.139 C 
ATOM     46  O   UNK d   0      33.192 -10.660  44.513  0.00  0.00    -0.650 OA
BRANCH  45  47
ATOM     47  O   UNK d   0      31.500 -11.292  43.136  0.00  0.00    -0.776 OA
ATOM     48  H   UNK d   0      30.921 -11.868  43.767  0.00  0.00     0.167 HD
ENDBRANCH  45  47
ENDBRANCH  44  45
ENDBRANCH  43  44
ENDBRANCH  27  43
BRANCH  24  49
ATOM     49  C   UNK d   0      33.239  -7.224  37.501  0.00  0.00     0.052 C 
BRANCH  49  50
ATOM     50  C   UNK d   0      31.969  -8.033  37.459  0.00  0.00     0.115 C 
BRANCH  50  51
ATOM     51  C   UNK d   0      31.170  -7.954  36.243  0.00  0.00     0.139 C 
ATOM     52  O   UNK d   0      31.673  -8.039  35.097  0.00  0.00    -0.650 OA
BRANCH  51  53
ATOM     53  O   UNK d   0      29.798  -7.776  36.332  0.00  0.00    -0.776 OA
ATOM     54  H   UNK d   0      29.391  -6.981  35.872  0.00  0.00     0.167 HD
ENDBRANCH  51  53
ENDBRANCH  50  51
ENDBRANCH  49  50
ENDBRANCH  24  49
BRANCH  21  55
ATOM     55  C   UNK d   0      31.758  -4.669  36.595  0.00  0.00     0.151 C 
BRANCH  55  56
ATOM     56  C   UNK d   0      30.354  -4.255  36.741  0.00  0.00     0.143 C 
ATOM     57  O   UNK d   0      29.489  -4.979  37.272  0.00  0.00    -0.650 OA
BRANCH  56  58
ATOM     58  O   UNK d   0      29.994  -2.998  36.259  0.00  0.00    -0.776 OA
ATOM     59  H   UNK d   0      30.054  -2.231  36.954  0.00  0.00     0.167 HD
ENDBRANCH  56  58
ENDBRANCH  55  56
ENDBRANCH  21  55
BRANCH  18  60
ATOM     60  C   UNK d   0      32.537   0.219  38.670  0.00  0.00     0.151 C 
BRANCH  60  61
ATOM     61  C   UNK d   0      31.138   0.412  38.260  0.00  0.00     0.143 C 
ATOM     62  O   UNK d   0      30.479  -0.306  37.508  0.00  0.00    -0.650 OA
BRANCH  61  63
ATOM     63  O   UNK d   0      30.503   1.555  38.804  0.00  0.00    -0.776 OA
ATOM     64  H   UNK d   0      29.880   1.478  39.588  0.00  0.00     0.167 HD
ENDBRANCH  61  63
ENDBRANCH  60  61
ENDBRANCH  18  60
BRANCH  14  65
ATOM     65  C   UNK d   0      32.931   1.596  41.346  0.00  0.00     0.052 C 
BRANCH  65  66
ATOM     66  C   UNK d   0      31.686   2.347  41.660  0.00  0.00     0.115 C 
BRANCH  66  67
ATOM     67  C   UNK d   0      31.529   2.958  42.950  0.00  0.00     0.139 C 
ATOM     68  O   UNK d   0      30.561   2.568  43.701  0.00  0.00    -0.650 OA
BRANCH  67  69
ATOM     69  O   UNK d   0      32.316   3.958  43.521  0.00  0.00    -0.776 OA
ATOM     70  H   UNK d   0      33.117   3.632  44.082  0.00  0.00     0.167 HD
ENDBRANCH  67  69
ENDBRANCH  66  67
ENDBRANCH  65  66
ENDBRANCH  14  65
ENDBRANCH   6   7
ENDBRANCH   5   6
ENDBRANCH   2   5
TORSDOF 28
ENDMDL
MODEL 3
REMARK VINA RESULT:      -9.7     28.612     32.153
REMARK  28 active torsions:
REMARK  status: ('A' for Active; 'I' for Inactive)
REMARK    1  A    between atoms: C_2  and  O_3 
REMARK    2  A    between atoms: C_2  and  C_4 
REMARK    3  A    between atoms: C_4  and  C_5 
REMARK    4  A    between atoms: C_5  and  C_6 
REMARK    5  A    between atoms: C_7  and  C_8 
REMARK    6  A    between atoms: C_8  and  C_9 
REMARK    7  A    between atoms: C_9  and  O_11 
REMARK    8  A    between atoms: C_28  and  C_29 
REMARK    9  A    between atoms: C_29  and  C_30 
REMARK   10  A    between atoms: C_30  and  O_32 
REMARK   11  A    between atoms: C_33  and  C_34 
REMARK   12  A    between atoms: C_34  and  C_35 
REMARK   13  A    between atoms: C_35  and  C_36 
REMARK   14  A    between atoms: C_36  and  O_38 
REMARK   15  A    between atoms: C_39  and  C_40 
REMARK   16  A    between atoms: C_40  and  C_41 
REMARK   17  A    between atoms: C_41  and  C_42 
REMARK   18  A    between atoms: C_42  and  O_44 
REMARK   19  A    between atoms: C_45  and  C_46 
REMARK   20  A    between atoms: C_46  and  C_47 
REMARK   21  A    between atoms: C_47  and  O_49 
REMARK   22  A    between atoms: C_50  and  C_51 
REMARK   23  A    between atoms: C_51  and  C_52 
REMARK   24  A    between atoms: C_52  and  O_54 
REMARK   25  A    between atoms: C_55  and  C_56 
REMARK   26  A    between atoms: C_56  and  C_57 
REMARK   27  A    between atoms: C_57  and  C_58 
REMARK   28  A    between atoms: C_58  and  O_60 
ROOT
ATOM      1  O   UNK d   0       4.426   4.203  52.104  0.00  0.00    -0.650 OA
ATOM      2  C   UNK d   0       4.334   4.442  50.880  0.00  0.00     0.139 C 
ENDROOT
BRANCH   2   3
ATOM      3  O   UNK d   0       3.092   4.614  50.319  0.00  0.00    -0.776 OA
ATOM      4  H   UNK d   0       2.911   5.376  49.661  0.00  0.00     0.167 HD
ENDBRANCH   2   3
BRANCH   2   5
ATOM      5  C   UNK d   0       5.563   4.537  50.041  0.00  0.00     0.115 C 
BRANCH   5   6
ATOM      6  C   UNK d   0       5.678   3.328  49.153  0.00  0.00     0.052 C 
BRANCH   6   7
ATOM      7  C   UNK d   0       5.300   3.622  47.721  0.00  0.00    -0.020 A 
ATOM      8  C   UNK d   0       5.150   2.765  46.743  0.00  0.00    -0.011 A 
ATOM      9  C   UNK d   0       4.792   3.511  45.548  0.00  0.00     0.067 A 
ATOM     10  C   UNK d   0       4.483   3.201  44.215  0.00  0.00     0.062 C 
ATOM     11  N   UNK d   0       4.753   4.817  45.888  0.00  0.00    -0.248 NA
ATOM     12  C   UNK d   0       3.887   4.038  43.266  0.00  0.00     0.041 A 
ATOM     13  N   UNK d   0       4.097   5.336  42.973  0.00  0.00    -0.355 N 
ATOM     14  C   UNK d   0       2.840   3.533  42.474  0.00  0.00    -0.022 A 
ATOM     15  C   UNK d   0       3.205   5.669  42.021  0.00  0.00     0.042 A 
ATOM     16  H   UNK d   0       4.874   5.998  43.416  0.00  0.00     0.166 HD
ATOM     17  C   UNK d   0       2.991   6.894  41.358  0.00  0.00     0.062 C 
ATOM     18  C   UNK d   0       2.400   4.564  41.682  0.00  0.00    -0.013 A 
ATOM     19  C   UNK d   0       2.929   8.159  41.884  0.00  0.00     0.067 A 
ATOM     20  N   UNK d   0       3.312   8.305  43.155  0.00  0.00    -0.248 NA
ATOM     21  C   UNK d   0       2.520   9.470  41.408  0.00  0.00    -0.011 A 
ATOM     22  C   UNK d   0       3.181   9.616  43.545  0.00  0.00     0.066 A 
ATOM     23  C   UNK d   0       3.581   9.917  44.838  0.00  0.00     0.062 C 
ATOM     24  C   UNK d   0       2.666  10.317  42.385  0.00  0.00    -0.020 A 
ATOM     25  C   UNK d   0       4.189   9.063  45.772  0.00  0.00     0.041 A 
ATOM     26  N   UNK d   0       3.971   7.778  46.074  0.00  0.00    -0.355 N 
ATOM     27  C   UNK d   0       5.243   9.570  46.563  0.00  0.00    -0.022 A 
ATOM     28  C   UNK d   0       4.853   7.446  47.029  0.00  0.00     0.042 A 
ATOM     29  H   UNK d   0       3.183   7.117  45.635  0.00  0.00     0.166 HD
ATOM     30  C   UNK d   0       5.071   6.234  47.703  0.00  0.00     0.062 C 
ATOM     31  C   UNK d   0       5.669   8.553  47.361  0.00  0.00    -0.013 A 
ATOM     32  C   UNK d   0       5.048   4.950  47.182  0.00  0.00     0.066 A 
BRANCH   8  33
ATOM     33  C   UNK d   0       5.314   1.301  46.816  0.00  0.00     0.151 C 
BRANCH  33  34
ATOM     34  C   UNK d   0       4.122   0.570  46.349  0.00  0.00     0.143 C 
ATOM     35  O   UNK d   0       3.045   0.653  46.957  0.00  0.00    -0.650 OA
BRANCH  34  36
ATOM     36  O   UNK d   0       4.211  -0.217  45.225  0.00  0.00    -0.776 OA
ATOM     37  H   UNK d   0       3.427  -0.813  44.926  0.00  0.00     0.167 HD
ENDBRANCH  34  36
ENDBRANCH  33  34
ENDBRANCH   8  33
BRANCH  31  38
ATOM     38  C   UNK d   0       6.792   8.622  48.370  0.00  0.00     0.151 C 
BRANCH  38  39
ATOM     39  C   UNK d   0       7.954   7.856  47.970  0.00  0.00     0.143 C 
ATOM     40  O   UNK d   0       8.930   8.376  47.402  0.00  0.00    -0.650 OA
BRANCH  39  41
ATOM     41  O   UNK d   0       7.992   6.486  48.226  0.00  0.00    -0.776 OA
ATOM     42  H   UNK d   0       8.427   5.895  47.510  0.00  0.00     0.167 HD
ENDBRANCH  39  41
ENDBRANCH  38  39
ENDBRANCH  31  38
BRANCH  27  43
ATOM     43  C   UNK d   0       5.843  10.954  46.589  0.00  0.00     0.052 C 
BRANCH  43  44
ATOM     44  C   UNK d   0       7.337  10.951  46.557  0.00  0.00     0.115 C 
BRANCH  44  45
ATOM     45  C   UNK d   0       7.785  11.961  47.551  0.00  0.00     0.139 C 
ATOM     46  O   UNK d   0       8.434  11.561  48.549  0.00  0.00    -0.650 OA
BRANCH  45  47
ATOM     47  O   UNK d   0       7.523  13.307  47.418  0.00  0.00    -0.776 OA
ATOM     48  H   UNK d   0       7.039  13.858  48.145  0.00  0.00     0.167 HD
ENDBRANCH  45  47
ENDBRANCH  44  45
ENDBRANCH  43  44
ENDBRANCH  27  43
BRANCH  24  49
ATOM     49  C   UNK d   0       2.404  11.765  42.326  0.00  0.00     0.052 C 
BRANCH  49  50
ATOM     50  C   UNK d   0       1.018  12.069  42.835  0.00  0.00     0.115 C 
BRANCH  50  51
ATOM     51  C   UNK d   0      -0.099  11.733  41.963  0.00  0.00     0.139 C 
ATOM     52  O   UNK d   0      -0.444  12.455  40.998  0.00  0.00    -0.650 OA
BRANCH  51  53
ATOM     53  O   UNK d   0      -0.825  10.574  42.192  0.00  0.00    -0.776 OA
ATOM     54  H   UNK d   0      -1.139  10.045  41.398  0.00  0.00     0.167 HD
ENDBRANCH  51  53
ENDBRANCH  50  51
ENDBRANCH  49  50
ENDBRANCH  24  49
BRANCH  21  55
ATOM     55  C   UNK d   0       2.030   9.739  40.024  0.00  0.00     0.151 C 
BRANCH  55  56
ATOM     56  C   UNK d   0       0.979   8.794  39.617  0.00  0.00     0.143 C 
ATOM     57  O   UNK d   0       0.956   8.252  38.494  0.00  0.00    -0.650 OA
BRANCH  56  58
ATOM     58  O   UNK d   0      -0.026   8.505  40.538  0.00  0.00    -0.776 OA
ATOM     59  H   UNK d   0      -0.468   7.575  40.425  0.00  0.00     0.167 HD
ENDBRANCH  56  58
ENDBRANCH  55  56
ENDBRANCH  21  55
BRANCH  18  60
ATOM     60  C   UNK d   0       1.276   4.466  40.680  0.00  0.00     0.151 C 
BRANCH  60  61
ATOM     61  C   UNK d   0       0.043   4.756  41.426  0.00  0.00     0.143 C 
ATOM     62  O   UNK d   0      -0.300   5.840  41.900  0.00  0.00    -0.650 OA
BRANCH  61  63
ATOM     63  O   UNK d   0      -0.827   3.654  41.605  0.00  0.00    -0.776 OA
ATOM     64  H   UNK d   0      -0.509   2.713  41.453  0.00  0.00     0.167 HD
ENDBRANCH  61  63
ENDBRANCH  60  61
ENDBRANCH  18  60
BRANCH  14  65
ATOM     65  C   UNK d   0       2.297   2.139  42.339  0.00  0.00     0.052 C 
BRANCH  65  66
ATOM     66  C   UNK d   0       3.107   1.284  41.431  0.00  0.00     0.115 C 
BRANCH  66  67
ATOM     67  C   UNK d   0       3.092  -0.143  41.595  0.00  0.00     0.139 C 
ATOM     68  O   UNK d   0       4.098  -0.706  42.164  0.00  0.00    -0.650 OA
BRANCH  67  69
ATOM     69  O   UNK d   0       2.094  -1.036  41.205  0.00  0.00    -0.776 OA
ATOM     70  H   UNK d   0       1.689  -1.611  41.958  0.00  0.00     0.167 HD
ENDBRANCH  67  69
ENDBRANCH  66  67
ENDBRANCH  65  66
ENDBRANCH  14  65
ENDBRANCH   6   7
ENDBRANCH   5   6
ENDBRANCH   2   5
TORSDOF 28
ENDMDL
MODEL 4
REMARK VINA RESULT:      -9.6     28.688     32.306
REMARK  28 active torsions:
REMARK  status: ('A' for Active; 'I' for Inactive)
REMARK    1  A    between atoms: C_2  and  O_3 
REMARK    2  A    between atoms: C_2  and  C_4 
REMARK    3  A    between atoms: C_4  and  C_5 
REMARK    4  A    between atoms: C_5  and  C_6 
REMARK    5  A    between atoms: C_7  and  C_8 
REMARK    6  A    between atoms: C_8  and  C_9 
REMARK    7  A    between atoms: C_9  and  O_11 
REMARK    8  A    between atoms: C_28  and  C_29 
REMARK    9  A    between atoms: C_29  and  C_30 
REMARK   10  A    between atoms: C_30  and  O_32 
REMARK   11  A    between atoms: C_33  and  C_34 
REMARK   12  A    between atoms: C_34  and  C_35 
REMARK   13  A    between atoms: C_35  and  C_36 
REMARK   14  A    between atoms: C_36  and  O_38 
REMARK   15  A    between atoms: C_39  and  C_40 
REMARK   16  A    between atoms: C_40  and  C_41 
REMARK   17  A    between atoms: C_41  and  C_42 
REMARK   18  A    between atoms: C_42  and  O_44 
REMARK   19  A    between atoms: C_45  and  C_46 
REMARK   20  A    between atoms: C_46  and  C_47 
REMARK   21  A    between atoms: C_47  and  O_49 
REMARK   22  A    between atoms: C_50  and  C_51 
REMARK   23  A    between atoms: C_51  and  C_52 
REMARK   24  A    between atoms: C_52  and  O_54 
REMARK   25  A    between atoms: C_55  and  C_56 
REMARK   26  A    between atoms: C_56  and  C_57 
REMARK   27  A    between atoms: C_57  and  C_58 
REMARK   28  A    between atoms: C_58  and  O_60 
ROOT
ATOM      1  O   UNK d   0       6.557   4.644  51.136  0.00  0.00    -0.650 OA
ATOM      2  C   UNK d   0       5.327   4.434  51.045  0.00  0.00     0.139 C 
ENDROOT
BRANCH   2   3
ATOM      3  O   UNK d   0       4.535   4.578  52.158  0.00  0.00    -0.776 OA
ATOM      4  H   UNK d   0       4.945   4.644  53.092  0.00  0.00     0.167 HD
ENDBRANCH   2   3
BRANCH   2   5
ATOM      5  C   UNK d   0       4.732   4.030  49.740  0.00  0.00     0.115 C 
BRANCH   5   6
ATOM      6  C   UNK d   0       5.813   3.867  48.706  0.00  0.00     0.052 C 
BRANCH   6   7
ATOM      7  C   UNK d   0       5.304   4.062  47.298  0.00  0.00    -0.020 A 
ATOM      8  C   UNK d   0       5.134   3.149  46.377  0.00  0.00    -0.011 A 
ATOM      9  C   UNK d   0       4.635   3.809  45.182  0.00  0.00     0.067 A 
ATOM     10  C   UNK d   0       4.242   3.411  43.894  0.00  0.00     0.062 C 
ATOM     11  N   UNK d   0       4.536   5.125  45.463  0.00  0.00    -0.248 NA
ATOM     12  C   UNK d   0       3.519   4.160  42.960  0.00  0.00     0.041 A 
ATOM     13  N   UNK d   0       3.619   5.451  42.590  0.00  0.00    -0.355 N 
ATOM     14  C   UNK d   0       2.448   3.550  42.280  0.00  0.00    -0.022 A 
ATOM     15  C   UNK d   0       2.634   5.678  41.700  0.00  0.00     0.042 A 
ATOM     16  H   UNK d   0       4.382   6.182  42.937  0.00  0.00     0.166 HD
ATOM     17  C   UNK d   0       2.287   6.851  41.002  0.00  0.00     0.062 C 
ATOM     18  C   UNK d   0       1.879   4.509  41.481  0.00  0.00    -0.013 A 
ATOM     19  C   UNK d   0       2.183   8.136  41.472  0.00  0.00     0.067 A 
ATOM     20  N   UNK d   0       2.655   8.371  42.699  0.00  0.00    -0.248 NA
ATOM     21  C   UNK d   0       1.651   9.392  40.970  0.00  0.00    -0.011 A 
ATOM     22  C   UNK d   0       2.469   9.689  43.036  0.00  0.00     0.066 A 
ATOM     23  C   UNK d   0       2.949  10.081  44.277  0.00  0.00     0.062 C 
ATOM     24  C   UNK d   0       1.818  10.296  41.892  0.00  0.00    -0.020 A 
ATOM     25  C   UNK d   0       3.684   9.316  45.196  0.00  0.00     0.041 A 
ATOM     26  N   UNK d   0       3.576   8.037  45.574  0.00  0.00    -0.355 N 
ATOM     27  C   UNK d   0       4.762   9.928  45.874  0.00  0.00    -0.022 A 
ATOM     28  C   UNK d   0       4.551   7.811  46.469  0.00  0.00     0.042 A 
ATOM     29  H   UNK d   0       2.802   7.307  45.233  0.00  0.00     0.166 HD
ATOM     30  C   UNK d   0       4.902   6.651  47.178  0.00  0.00     0.062 C 
ATOM     31  C   UNK d   0       5.316   8.982  46.680  0.00  0.00    -0.013 A 
ATOM     32  C   UNK d   0       4.923   5.343  46.720  0.00  0.00     0.066 A 
BRANCH   8  33
ATOM     33  C   UNK d   0       5.400   1.704  46.504  0.00  0.00     0.151 C 
BRANCH  33  34
ATOM     34  C   UNK d   0       4.200   0.880  46.273  0.00  0.00     0.143 C 
ATOM     35  O   UNK d   0       3.250   0.903  47.068  0.00  0.00    -0.650 OA
BRANCH  34  36
ATOM     36  O   UNK d   0       4.137   0.075  45.159  0.00  0.00    -0.776 OA
ATOM     37  H   UNK d   0       3.245  -0.103  44.678  0.00  0.00     0.167 HD
ENDBRANCH  34  36
ENDBRANCH  33  34
ENDBRANCH   8  33
BRANCH  31  38
ATOM     38  C   UNK d   0       6.508   9.173  47.589  0.00  0.00     0.151 C 
BRANCH  38  39
ATOM     39  C   UNK d   0       7.756   8.786  46.966  0.00  0.00     0.143 C 
ATOM     40  O   UNK d   0       8.610   8.101  47.556  0.00  0.00    -0.650 OA
BRANCH  39  41
ATOM     41  O   UNK d   0       8.024   9.187  45.658  0.00  0.00    -0.776 OA
ATOM     42  H   UNK d   0       7.665  10.104  45.374  0.00  0.00     0.167 HD
ENDBRANCH  39  41
ENDBRANCH  38  39
ENDBRANCH  31  38
BRANCH  27  43
ATOM     43  C   UNK d   0       5.268  11.346  45.786  0.00  0.00     0.052 C 
BRANCH  43  44
ATOM     44  C   UNK d   0       4.255  12.363  46.199  0.00  0.00     0.115 C 
BRANCH  44  45
ATOM     45  C   UNK d   0       4.700  13.662  45.631  0.00  0.00     0.139 C 
ATOM     46  O   UNK d   0       5.613  14.286  46.227  0.00  0.00    -0.650 OA
BRANCH  45  47
ATOM     47  O   UNK d   0       4.159  14.200  44.484  0.00  0.00    -0.776 OA
ATOM     48  H   UNK d   0       4.169  13.709  43.576  0.00  0.00     0.167 HD
ENDBRANCH  45  47
ENDBRANCH  44  45
ENDBRANCH  43  44
ENDBRANCH  27  43
BRANCH  24  49
ATOM     49  C   UNK d   0       1.457  11.720  41.787  0.00  0.00     0.052 C 
BRANCH  49  50
ATOM     50  C   UNK d   0       2.443  12.448  40.910  0.00  0.00     0.115 C 
BRANCH  50  51
ATOM     51  C   UNK d   0       3.845  12.077  41.036  0.00  0.00     0.139 C 
ATOM     52  O   UNK d   0       4.516  11.631  40.075  0.00  0.00    -0.650 OA
BRANCH  51  53
ATOM     53  O   UNK d   0       4.483  12.211  42.260  0.00  0.00    -0.776 OA
ATOM     54  H   UNK d   0       5.487  12.252  42.271  0.00  0.00     0.167 HD
ENDBRANCH  51  53
ENDBRANCH  50  51
ENDBRANCH  49  50
ENDBRANCH  24  49
BRANCH  21  55
ATOM     55  C   UNK d   0       1.037   9.559  39.620  0.00  0.00     0.151 C 
BRANCH  55  56
ATOM     56  C   UNK d   0       2.031   9.440  38.543  0.00  0.00     0.143 C 
ATOM     57  O   UNK d   0       2.304   8.354  37.993  0.00  0.00    -0.650 OA
BRANCH  56  58
ATOM     58  O   UNK d   0       2.686  10.600  38.132  0.00  0.00    -0.776 OA
ATOM     59  H   UNK d   0       3.461  10.449  37.461  0.00  0.00     0.167 HD
ENDBRANCH  56  58
ENDBRANCH  55  56
ENDBRANCH  21  55
BRANCH  18  60
ATOM     60  C   UNK d   0       0.689   4.289  40.580  0.00  0.00     0.151 C 
BRANCH  60  61
ATOM     61  C   UNK d   0      -0.498   4.556  41.407  0.00  0.00     0.143 C 
ATOM     62  O   UNK d   0      -0.886   5.651  41.816  0.00  0.00    -0.650 OA
BRANCH  61  63
ATOM     63  O   UNK d   0      -1.259   3.414  41.755  0.00  0.00    -0.776 OA
ATOM     64  H   UNK d   0      -1.074   2.907  42.602  0.00  0.00     0.167 HD
ENDBRANCH  61  63
ENDBRANCH  60  61
ENDBRANCH  18  60
BRANCH  14  65
ATOM     65  C   UNK d   0       1.989   2.119  42.256  0.00  0.00     0.052 C 
BRANCH  65  66
ATOM     66  C   UNK d   0       2.632   1.321  41.178  0.00  0.00     0.115 C 
BRANCH  66  67
ATOM     67  C   UNK d   0       2.703  -0.109  41.298  0.00  0.00     0.139 C 
ATOM     68  O   UNK d   0       3.857  -0.655  41.452  0.00  0.00    -0.650 OA
BRANCH  67  69
ATOM     69  O   UNK d   0       1.648  -1.021  41.267  0.00  0.00    -0.776 OA
ATOM     70  H   UNK d   0       1.281  -1.311  42.185  0.00  0.00     0.167 HD
ENDBRANCH  67  69
ENDBRANCH  66  67
ENDBRANCH  65  66
ENDBRANCH  14  65
ENDBRANCH   6   7
ENDBRANCH   5   6
ENDBRANCH   2   5
TORSDOF 28
ENDMDL
MODEL 5
REMARK VINA RESULT:      -9.2      1.370      7.518
REMARK  28 active torsions:
REMARK  status: ('A' for Active; 'I' for Inactive)
REMARK    1  A    between atoms: C_2  and  O_3 
REMARK    2  A    between atoms: C_2  and  C_4 
REMARK    3  A    between atoms: C_4  and  C_5 
REMARK    4  A    between atoms: C_5  and  C_6 
REMARK    5  A    between atoms: C_7  and  C_8 
REMARK    6  A    between atoms: C_8  and  C_9 
REMARK    7  A    between atoms: C_9  and  O_11 
REMARK    8  A    between atoms: C_28  and  C_29 
REMARK    9  A    between atoms: C_29  and  C_30 
REMARK   10  A    between atoms: C_30  and  O_32 
REMARK   11  A    between atoms: C_33  and  C_34 
REMARK   12  A    between atoms: C_34  and  C_35 
REMARK   13  A    between atoms: C_35  and  C_36 
REMARK   14  A    between atoms: C_36  and  O_38 
REMARK   15  A    between atoms: C_39  and  C_40 
REMARK   16  A    between atoms: C_40  and  C_41 
REMARK   17  A    between atoms: C_41  and  C_42 
REMARK   18  A    between atoms: C_42  and  O_44 
REMARK   19  A    between atoms: C_45  and  C_46 
REMARK   20  A    between atoms: C_46  and  C_47 
REMARK   21  A    between atoms: C_47  and  O_49 
REMARK   22  A    between atoms: C_50  and  C_51 
REMARK   23  A    between atoms: C_51  and  C_52 
REMARK   24  A    between atoms: C_52  and  O_54 
REMARK   25  A    between atoms: C_55  and  C_56 
REMARK   26  A    between atoms: C_56  and  C_57 
REMARK   27  A    between atoms: C_57  and  C_58 
REMARK   28  A    between atoms: C_58  and  O_60 
ROOT
ATOM      1  O   UNK d   0      35.832   3.714  47.202  0.00  0.00    -0.650 OA
ATOM      2  C   UNK d   0      35.367   2.570  47.406  0.00  0.00     0.139 C 
ENDROOT
BRANCH   2   3
ATOM      3  O   UNK d   0      35.541   1.982  48.636  0.00  0.00    -0.776 OA
ATOM      4  H   UNK d   0      35.357   0.987  48.776  0.00  0.00     0.167 HD
ENDBRANCH   2   3
BRANCH   2   5
ATOM      5  C   UNK d   0      34.632   1.856  46.324  0.00  0.00     0.115 C 
BRANCH   5   6
ATOM      6  C   UNK d   0      33.943   0.641  46.880  0.00  0.00     0.052 C 
BRANCH   6   7
ATOM      7  C   UNK d   0      34.229  -0.607  46.080  0.00  0.00    -0.020 A 
ATOM      8  C   UNK d   0      34.918  -1.655  46.454  0.00  0.00    -0.011 A 
ATOM      9  C   UNK d   0      34.930  -2.598  45.348  0.00  0.00     0.067 A 
ATOM     10  C   UNK d   0      35.456  -3.878  45.114  0.00  0.00     0.062 C 
ATOM     11  N   UNK d   0      34.228  -2.040  44.339  0.00  0.00    -0.248 NA
ATOM     12  C   UNK d   0      35.126  -4.752  44.073  0.00  0.00     0.041 A 
ATOM     13  N   UNK d   0      34.931  -4.532  42.759  0.00  0.00    -0.355 N 
ATOM     14  C   UNK d   0      34.887  -6.106  44.372  0.00  0.00    -0.022 A 
ATOM     15  C   UNK d   0      34.566  -5.710  42.218  0.00  0.00     0.042 A 
ATOM     16  H   UNK d   0      35.067  -3.568  42.222  0.00  0.00     0.166 HD
ATOM     17  C   UNK d   0      34.245  -6.043  40.887  0.00  0.00     0.062 C 
ATOM     18  C   UNK d   0      34.527  -6.720  43.198  0.00  0.00    -0.013 A 
ATOM     19  C   UNK d   0      33.451  -5.367  39.996  0.00  0.00     0.067 A 
ATOM     20  N   UNK d   0      33.076  -4.131  40.337  0.00  0.00    -0.248 NA
ATOM     21  C   UNK d   0      32.854  -5.653  38.702  0.00  0.00    -0.011 A 
ATOM     22  C   UNK d   0      32.276  -3.589  39.361  0.00  0.00     0.066 A 
ATOM     23  C   UNK d   0      31.845  -2.288  39.570  0.00  0.00     0.062 C 
ATOM     24  C   UNK d   0      32.165  -4.610  38.338  0.00  0.00    -0.020 A 
ATOM     25  C   UNK d   0      32.198  -1.422  40.616  0.00  0.00     0.041 A 
ATOM     26  N   UNK d   0      32.378  -1.637  41.925  0.00  0.00    -0.355 N 
ATOM     27  C   UNK d   0      32.442  -0.064  40.315  0.00  0.00    -0.022 A 
ATOM     28  C   UNK d   0      32.733  -0.462  42.468  0.00  0.00     0.042 A 
ATOM     29  H   UNK d   0      32.230  -2.604  42.465  0.00  0.00     0.166 HD
ATOM     30  C   UNK d   0      33.046  -0.115  43.792  0.00  0.00     0.062 C 
ATOM     31  C   UNK d   0      32.782   0.550  41.481  0.00  0.00    -0.013 A 
ATOM     32  C   UNK d   0      33.779  -0.842  44.716  0.00  0.00     0.066 A 
BRANCH   8  33
ATOM     33  C   UNK d   0      35.578  -1.861  47.756  0.00  0.00     0.151 C 
BRANCH  33  34
ATOM     34  C   UNK d   0      36.936  -1.289  47.804  0.00  0.00     0.143 C 
ATOM     35  O   UNK d   0      37.159  -0.227  48.403  0.00  0.00    -0.650 OA
BRANCH  34  36
ATOM     36  O   UNK d   0      37.968  -1.946  47.174  0.00  0.00    -0.776 OA
ATOM     37  H   UNK d   0      38.073  -2.967  47.244  0.00  0.00     0.167 HD
ENDBRANCH  34  36
ENDBRANCH  33  34
ENDBRANCH   8  33
BRANCH  31  38
ATOM     38  C   UNK d   0      33.145   2.007  41.648  0.00  0.00     0.151 C 
BRANCH  38  39
ATOM     39  C   UNK d   0      32.244   2.712  42.535  0.00  0.00     0.143 C 
ATOM     40  O   UNK d   0      31.022   2.791  42.318  0.00  0.00    -0.650 OA
BRANCH  39  41
ATOM     41  O   UNK d   0      32.750   3.329  43.679  0.00  0.00    -0.776 OA
ATOM     42  H   UNK d   0      32.215   4.119  44.053  0.00  0.00     0.167 HD
ENDBRANCH  39  41
ENDBRANCH  38  39
ENDBRANCH  31  38
BRANCH  27  43
ATOM     43  C   UNK d   0      32.364   0.653  38.990  0.00  0.00     0.052 C 
BRANCH  43  44
ATOM     44  C   UNK d   0      31.076   1.383  38.789  0.00  0.00     0.115 C 
BRANCH  44  45
ATOM     45  C   UNK d   0      31.376   2.829  38.960  0.00  0.00     0.139 C 
ATOM     46  O   UNK d   0      32.511   3.242  38.617  0.00  0.00    -0.650 OA
BRANCH  45  47
ATOM     47  O   UNK d   0      30.464   3.726  39.471  0.00  0.00    -0.776 OA
ATOM     48  H   UNK d   0      29.639   4.050  38.940  0.00  0.00     0.167 HD
ENDBRANCH  45  47
ENDBRANCH  44  45
ENDBRANCH  43  44
ENDBRANCH  27  43
BRANCH  24  49
ATOM     49  C   UNK d   0      31.427  -4.456  37.072  0.00  0.00     0.052 C 
BRANCH  49  50
ATOM     50  C   UNK d   0      30.045  -5.044  37.196  0.00  0.00     0.115 C 
BRANCH  50  51
ATOM     51  C   UNK d   0      28.921  -4.168  36.894  0.00  0.00     0.139 C 
ATOM     52  O   UNK d   0      29.028  -3.158  36.160  0.00  0.00    -0.650 OA
BRANCH  51  53
ATOM     53  O   UNK d   0      27.673  -4.442  37.434  0.00  0.00    -0.776 OA
ATOM     54  H   UNK d   0      27.573  -4.424  38.434  0.00  0.00     0.167 HD
ENDBRANCH  51  53
ENDBRANCH  50  51
ENDBRANCH  49  50
ENDBRANCH  24  49
BRANCH  21  55
ATOM     55  C   UNK d   0      33.038  -6.937  37.963  0.00  0.00     0.151 C 
BRANCH  55  56
ATOM     56  C   UNK d   0      34.333  -6.991  37.266  0.00  0.00     0.143 C 
ATOM     57  O   UNK d   0      35.328  -7.575  37.736  0.00  0.00    -0.650 OA
BRANCH  56  58
ATOM     58  O   UNK d   0      34.431  -6.356  36.029  0.00  0.00    -0.776 OA
ATOM     59  H   UNK d   0      34.885  -6.917  35.286  0.00  0.00     0.167 HD
ENDBRANCH  56  58
ENDBRANCH  55  56
ENDBRANCH  21  55
BRANCH  18  60
ATOM     60  C   UNK d   0      34.172  -8.180  43.060  0.00  0.00     0.151 C 
BRANCH  60  61
ATOM     61  C   UNK d   0      32.729  -8.272  43.329  0.00  0.00     0.143 C 
ATOM     62  O   UNK d   0      31.980  -7.361  43.681  0.00  0.00    -0.650 OA
BRANCH  61  63
ATOM     63  O   UNK d   0      32.165  -9.559  43.156  0.00  0.00    -0.776 OA
ATOM     64  H   UNK d   0      32.226 -10.253  43.880  0.00  0.00     0.167 HD
ENDBRANCH  61  63
ENDBRANCH  60  61
ENDBRANCH  18  60
BRANCH  14  65
ATOM     65  C   UNK d   0      35.067  -6.875  45.650  0.00  0.00     0.052 C 
BRANCH  65  66
ATOM     66  C   UNK d   0      33.873  -6.817  46.536  0.00  0.00     0.115 C 
BRANCH  66  67
ATOM     67  C   UNK d   0      34.007  -6.323  47.877  0.00  0.00     0.139 C 
ATOM     68  O   UNK d   0      35.183  -6.253  48.392  0.00  0.00    -0.650 OA
BRANCH  67  69
ATOM     69  O   UNK d   0      32.993  -5.891  48.732  0.00  0.00    -0.776 OA
ATOM     70  H   UNK d   0      32.383  -5.148  48.364  0.00  0.00     0.167 HD
ENDBRANCH  67  69
ENDBRANCH  66  67
ENDBRANCH  65  66
ENDBRANCH  14  65
ENDBRANCH   6   7
ENDBRANCH   5   6
ENDBRANCH   2   5
TORSDOF 28
ENDMDL
MODEL 6
REMARK VINA RESULT:      -9.2      2.050      8.047
REMARK  28 active torsions:
REMARK  status: ('A' for Active; 'I' for Inactive)
REMARK    1  A    between atoms: C_2  and  O_3 
REMARK    2  A    between atoms: C_2  and  C_4 
REMARK    3  A    between atoms: C_4  and  C_5 
REMARK    4  A    between atoms: C_5  and  C_6 
REMARK    5  A    between atoms: C_7  and  C_8 
REMARK    6  A    between atoms: C_8  and  C_9 
REMARK    7  A    between atoms: C_9  and  O_11 
REMARK    8  A    between atoms: C_28  and  C_29 
REMARK    9  A    between atoms: C_29  and  C_30 
REMARK   10  A    between atoms: C_30  and  O_32 
REMARK   11  A    between atoms: C_33  and  C_34 
REMARK   12  A    between atoms: C_34  and  C_35 
REMARK   13  A    between atoms: C_35  and  C_36 
REMARK   14  A    between atoms: C_36  and  O_38 
REMARK   15  A    between atoms: C_39  and  C_40 
REMARK   16  A    between atoms: C_40  and  C_41 
REMARK   17  A    between atoms: C_41  and  C_42 
REMARK   18  A    between atoms: C_42  and  O_44 
REMARK   19  A    between atoms: C_45  and  C_46 
REMARK   20  A    between atoms: C_46  and  C_47 
REMARK   21  A    between atoms: C_47  and  O_49 
REMARK   22  A    between atoms: C_50  and  C_51 
REMARK   23  A    between atoms: C_51  and  C_52 
REMARK   24  A    between atoms: C_52  and  O_54 
REMARK   25  A    between atoms: C_55  and  C_56 
REMARK   26  A    between atoms: C_56  and  C_57 
REMARK   27  A    between atoms: C_57  and  C_58 
REMARK   28  A    between atoms: C_58  and  O_60 
ROOT
ATOM      1  O   UNK d   0      28.943  -3.522  35.997  0.00  0.00    -0.650 OA
ATOM      2  C   UNK d   0      28.771  -4.288  36.971  0.00  0.00     0.139 C 
ENDROOT
BRANCH   2   3
ATOM      3  O   UNK d   0      27.494  -4.548  37.407  0.00  0.00    -0.776 OA
ATOM      4  H   UNK d   0      26.810  -3.796  37.514  0.00  0.00     0.167 HD
ENDBRANCH   2   3
BRANCH   2   5
ATOM      5  C   UNK d   0      29.944  -4.910  37.650  0.00  0.00     0.115 C 
BRANCH   5   6
ATOM      6  C   UNK d   0      31.205  -4.178  37.279  0.00  0.00     0.052 C 
BRANCH   6   7
ATOM      7  C   UNK d   0      31.711  -3.290  38.390  0.00  0.00    -0.020 A 
ATOM      8  C   UNK d   0      31.634  -1.986  38.468  0.00  0.00    -0.011 A 
ATOM      9  C   UNK d   0      32.264  -1.577  39.712  0.00  0.00     0.067 A 
ATOM     10  C   UNK d   0      32.489  -0.364  40.382  0.00  0.00     0.062 C 
ATOM     11  N   UNK d   0      32.700  -2.696  40.327  0.00  0.00    -0.248 NA
ATOM     12  C   UNK d   0      32.870  -0.191  41.717  0.00  0.00     0.041 A 
ATOM     13  N   UNK d   0      33.779  -0.840  42.470  0.00  0.00    -0.355 N 
ATOM     14  C   UNK d   0      32.202   0.770  42.496  0.00  0.00    -0.022 A 
ATOM     15  C   UNK d   0      33.698  -0.320  43.710  0.00  0.00     0.042 A 
ATOM     16  H   UNK d   0      34.476  -1.635  42.128  0.00  0.00     0.166 HD
ATOM     17  C   UNK d   0      34.420  -0.631  44.879  0.00  0.00     0.062 C 
ATOM     18  C   UNK d   0      32.720   0.692  43.765  0.00  0.00    -0.013 A 
ATOM     19  C   UNK d   0      34.736  -1.862  45.396  0.00  0.00     0.067 A 
ATOM     20  N   UNK d   0      34.516  -2.921  44.613  0.00  0.00    -0.248 NA
ATOM     21  C   UNK d   0      35.268  -2.362  46.653  0.00  0.00    -0.011 A 
ATOM     22  C   UNK d   0      34.864  -4.077  45.267  0.00  0.00     0.066 A 
ATOM     23  C   UNK d   0      34.720  -5.257  44.552  0.00  0.00     0.062 C 
ATOM     24  C   UNK d   0      35.336  -3.659  46.572  0.00  0.00    -0.020 A 
ATOM     25  C   UNK d   0      34.348  -5.408  43.207  0.00  0.00     0.041 A 
ATOM     26  N   UNK d   0      33.435  -4.774  42.462  0.00  0.00    -0.355 N 
ATOM     27  C   UNK d   0      35.023  -6.370  42.424  0.00  0.00    -0.022 A 
ATOM     28  C   UNK d   0      33.507  -5.296  41.228  0.00  0.00     0.042 A 
ATOM     29  H   UNK d   0      32.727  -3.982  42.810  0.00  0.00     0.166 HD
ATOM     30  C   UNK d   0      32.789  -5.003  40.058  0.00  0.00     0.062 C 
ATOM     31  C   UNK d   0      34.497  -6.306  41.170  0.00  0.00    -0.013 A 
ATOM     32  C   UNK d   0      32.398  -3.761  39.584  0.00  0.00     0.066 A 
BRANCH   8  33
ATOM     33  C   UNK d   0      31.029  -1.075  37.479  0.00  0.00     0.151 C 
BRANCH  33  34
ATOM     34  C   UNK d   0      31.670   0.252  37.458  0.00  0.00     0.143 C 
ATOM     35  O   UNK d   0      32.812   0.400  36.999  0.00  0.00    -0.650 OA
BRANCH  34  36
ATOM     36  O   UNK d   0      30.990   1.339  37.957  0.00  0.00    -0.776 OA
ATOM     37  H   UNK d   0      30.727   1.394  38.951  0.00  0.00     0.167 HD
ENDBRANCH  34  36
ENDBRANCH  33  34
ENDBRANCH   8  33
BRANCH  31  38
ATOM     38  C   UNK d   0      34.917  -7.141  39.984  0.00  0.00     0.151 C 
BRANCH  38  39
ATOM     39  C   UNK d   0      33.979  -8.202  39.683  0.00  0.00     0.143 C 
ATOM     40  O   UNK d   0      33.394  -8.282  38.589  0.00  0.00    -0.650 OA
BRANCH  39  41
ATOM     41  O   UNK d   0      33.713  -9.175  40.645  0.00  0.00    -0.776 OA
ATOM     42  H   UNK d   0      33.593  -8.850  41.610  0.00  0.00     0.167 HD
ENDBRANCH  39  41
ENDBRANCH  38  39
ENDBRANCH  31  38
BRANCH  27  43
ATOM     43  C   UNK d   0      36.121  -7.326  42.817  0.00  0.00     0.052 C 
BRANCH  43  44
ATOM     44  C   UNK d   0      37.480  -6.706  42.797  0.00  0.00     0.115 C 
BRANCH  44  45
ATOM     45  C   UNK d   0      38.045  -6.877  44.161  0.00  0.00     0.139 C 
ATOM     46  O   UNK d   0      38.304  -5.845  44.829  0.00  0.00    -0.650 OA
BRANCH  45  47
ATOM     47  O   UNK d   0      38.286  -8.114  44.720  0.00  0.00    -0.776 OA
ATOM     48  H   UNK d   0      37.912  -8.396  45.640  0.00  0.00     0.167 HD
ENDBRANCH  45  47
ENDBRANCH  44  45
ENDBRANCH  43  44
ENDBRANCH  27  43
BRANCH  24  49
ATOM     49  C   UNK d   0      35.854  -4.567  47.610  0.00  0.00     0.052 C 
BRANCH  49  50
ATOM     50  C   UNK d   0      34.724  -5.104  48.450  0.00  0.00     0.115 C 
BRANCH  50  51
ATOM     51  C   UNK d   0      34.234  -6.438  48.132  0.00  0.00     0.139 C 
ATOM     52  O   UNK d   0      33.032  -6.768  48.269  0.00  0.00    -0.650 OA
BRANCH  51  53
ATOM     53  O   UNK d   0      35.116  -7.398  47.659  0.00  0.00    -0.776 OA
ATOM     54  H   UNK d   0      35.940  -7.089  47.175  0.00  0.00     0.167 HD
ENDBRANCH  51  53
ENDBRANCH  50  51
ENDBRANCH  49  50
ENDBRANCH  24  49
BRANCH  21  55
ATOM     55  C   UNK d   0      35.656  -1.490  47.801  0.00  0.00     0.151 C 
BRANCH  55  56
ATOM     56  C   UNK d   0      36.999  -0.914  47.626  0.00  0.00     0.143 C 
ATOM     57  O   UNK d   0      37.970  -1.578  47.213  0.00  0.00    -0.650 OA
BRANCH  56  58
ATOM     58  O   UNK d   0      37.173   0.432  47.941  0.00  0.00    -0.776 OA
ATOM     59  H   UNK d   0      37.216   0.641  48.955  0.00  0.00     0.167 HD
ENDBRANCH  56  58
ENDBRANCH  55  56
ENDBRANCH  21  55
BRANCH  18  60
ATOM     60  C   UNK d   0      32.283   1.543  44.932  0.00  0.00     0.151 C 
BRANCH  60  61
ATOM     61  C   UNK d   0      30.924   1.094  45.271  0.00  0.00     0.143 C 
ATOM     62  O   UNK d   0      30.502  -0.063  45.271  0.00  0.00    -0.650 OA
BRANCH  61  63
ATOM     63  O   UNK d   0      30.023   2.124  45.635  0.00  0.00    -0.776 OA
ATOM     64  H   UNK d   0      29.777   2.282  46.596  0.00  0.00     0.167 HD
ENDBRANCH  61  63
ENDBRANCH  60  61
ENDBRANCH  18  60
BRANCH  14  65
ATOM     65  C   UNK d   0      31.190   1.813  42.113  0.00  0.00     0.052 C 
BRANCH  65  66
ATOM     66  C   UNK d   0      31.766   2.903  41.280  0.00  0.00     0.115 C 
BRANCH  66  67
ATOM     67  C   UNK d   0      31.621   4.269  41.697  0.00  0.00     0.139 C 
ATOM     68  O   UNK d   0      31.344   5.156  40.807  0.00  0.00    -0.650 OA
BRANCH  67  69
ATOM     69  O   UNK d   0      31.745   4.786  42.986  0.00  0.00    -0.776 OA
ATOM     70  H   UNK d   0      32.503   5.469  43.123  0.00  0.00     0.167 HD
ENDBRANCH  67  69
ENDBRANCH  66  67
ENDBRANCH  65  66
ENDBRANCH  14  65
ENDBRANCH   6   7
ENDBRANCH   5   6
ENDBRANCH   2   5
TORSDOF 28
ENDMDL
MODEL 7
REMARK VINA RESULT:      -9.2     29.103     32.378
REMARK  28 active torsions:
REMARK  status: ('A' for Active; 'I' for Inactive)
REMARK    1  A    between atoms: C_2  and  O_3 
REMARK    2  A    between atoms: C_2  and  C_4 
REMARK    3  A    between atoms: C_4  and  C_5 
REMARK    4  A    between atoms: C_5  and  C_6 
REMARK    5  A    between atoms: C_7  and  C_8 
REMARK    6  A    between atoms: C_8  and  C_9 
REMARK    7  A    between atoms: C_9  and  O_11 
REMARK    8  A    between atoms: C_28  and  C_29 
REMARK    9  A    between atoms: C_29  and  C_30 
REMARK   10  A    between atoms: C_30  and  O_32 
REMARK   11  A    between atoms: C_33  and  C_34 
REMARK   12  A    between atoms: C_34  and  C_35 
REMARK   13  A    between atoms: C_35  and  C_36 
REMARK   14  A    between atoms: C_36  and  O_38 
REMARK   15  A    between atoms: C_39  and  C_40 
REMARK   16  A    between atoms: C_40  and  C_41 
REMARK   17  A    between atoms: C_41  and  C_42 
REMARK   18  A    between atoms: C_42  and  O_44 
REMARK   19  A    between atoms: C_45  and  C_46 
REMARK   20  A    between atoms: C_46  and  C_47 
REMARK   21  A    between atoms: C_47  and  O_49 
REMARK   22  A    between atoms: C_50  and  C_51 
REMARK   23  A    between atoms: C_51  and  C_52 
REMARK   24  A    between atoms: C_52  and  O_54 
REMARK   25  A    between atoms: C_55  and  C_56 
REMARK   26  A    between atoms: C_56  and  C_57 
REMARK   27  A    between atoms: C_57  and  C_58 
REMARK   28  A    between atoms: C_58  and  O_60 
ROOT
ATOM      1  O   UNK d   0       5.210  -0.221  46.485  0.00  0.00    -0.650 OA
ATOM      2  C   UNK d   0       4.565   0.833  46.287  0.00  0.00     0.139 C 
ENDROOT
BRANCH   2   3
ATOM      3  O   UNK d   0       3.724   0.915  45.204  0.00  0.00    -0.776 OA
ATOM      4  H   UNK d   0       2.961   0.247  45.076  0.00  0.00     0.167 HD
ENDBRANCH   2   3
BRANCH   2   5
ATOM      5  C   UNK d   0       4.713   1.986  47.220  0.00  0.00     0.115 C 
BRANCH   5   6
ATOM      6  C   UNK d   0       5.792   2.913  46.731  0.00  0.00     0.052 C 
BRANCH   6   7
ATOM      7  C   UNK d   0       5.296   4.324  46.525  0.00  0.00    -0.020 A 
ATOM      8  C   UNK d   0       5.378   5.329  47.359  0.00  0.00    -0.011 A 
ATOM      9  C   UNK d   0       4.758   6.482  46.729  0.00  0.00     0.067 A 
ATOM     10  C   UNK d   0       4.541   7.827  47.068  0.00  0.00     0.062 C 
ATOM     11  N   UNK d   0       4.320   6.088  45.515  0.00  0.00    -0.248 NA
ATOM     12  C   UNK d   0       4.168   8.868  46.210  0.00  0.00     0.041 A 
ATOM     13  N   UNK d   0       3.261   8.915  45.216  0.00  0.00    -0.355 N 
ATOM     14  C   UNK d   0       4.845  10.098  46.298  0.00  0.00    -0.022 A 
ATOM     15  C   UNK d   0       3.351  10.140  44.666  0.00  0.00     0.042 A 
ATOM     16  H   UNK d   0       2.558   8.105  44.922  0.00  0.00     0.166 HD
ATOM     17  C   UNK d   0       2.634  10.717  43.598  0.00  0.00     0.062 C 
ATOM     18  C   UNK d   0       4.334  10.910  45.317  0.00  0.00    -0.013 A 
ATOM     19  C   UNK d   0       2.316  10.173  42.380  0.00  0.00     0.067 A 
ATOM     20  N   UNK d   0       2.528   8.863  42.228  0.00  0.00    -0.248 NA
ATOM     21  C   UNK d   0       1.789  10.670  41.120  0.00  0.00    -0.011 A 
ATOM     22  C   UNK d   0       2.179   8.468  40.960  0.00  0.00     0.066 A 
ATOM     23  C   UNK d   0       2.313   7.116  40.677  0.00  0.00     0.062 C 
ATOM     24  C   UNK d   0       1.715   9.668  40.292  0.00  0.00    -0.020 A 
ATOM     25  C   UNK d   0       2.677   6.085  41.557  0.00  0.00     0.041 A 
ATOM     26  N   UNK d   0       3.589   6.033  42.535  0.00  0.00    -0.355 N 
ATOM     27  C   UNK d   0       1.994   4.852  41.471  0.00  0.00    -0.022 A 
ATOM     28  C   UNK d   0       3.507   4.809  43.080  0.00  0.00     0.042 A 
ATOM     29  H   UNK d   0       4.302   6.845  42.823  0.00  0.00     0.166 HD
ATOM     30  C   UNK d   0       4.220   4.219  44.136  0.00  0.00     0.062 C 
ATOM     31  C   UNK d   0       2.512   4.039  42.431  0.00  0.00    -0.013 A 
ATOM     32  C   UNK d   0       4.613   4.800  45.331  0.00  0.00     0.066 A 
BRANCH   8  33
ATOM     33  C   UNK d   0       5.982   5.315  48.704  0.00  0.00     0.151 C 
BRANCH  33  34
ATOM     34  C   UNK d   0       5.119   4.670  49.710  0.00  0.00     0.143 C 
ATOM     35  O   UNK d   0       3.898   4.880  49.730  0.00  0.00    -0.650 OA
BRANCH  34  36
ATOM     36  O   UNK d   0       5.681   3.824  50.639  0.00  0.00    -0.776 OA
ATOM     37  H   UNK d   0       5.340   2.861  50.759  0.00  0.00     0.167 HD
ENDBRANCH  34  36
ENDBRANCH  33  34
ENDBRANCH   8  33
BRANCH  31  38
ATOM     38  C   UNK d   0       2.082   2.622  42.727  0.00  0.00     0.151 C 
BRANCH  38  39
ATOM     39  C   UNK d   0       2.722   1.650  41.866  0.00  0.00     0.143 C 
ATOM     40  O   UNK d   0       2.099   1.023  40.991  0.00  0.00    -0.650 OA
BRANCH  39  41
ATOM     41  O   UNK d   0       4.086   1.398  42.011  0.00  0.00    -0.776 OA
ATOM     42  H   UNK d   0       4.721   2.187  41.853  0.00  0.00     0.167 HD
ENDBRANCH  39  41
ENDBRANCH  38  39
ENDBRANCH  31  38
BRANCH  27  43
ATOM     43  C   UNK d   0       0.894   4.430  40.529  0.00  0.00     0.052 C 
BRANCH  43  44
ATOM     44  C   UNK d   0      -0.383   5.177  40.739  0.00  0.00     0.115 C 
BRANCH  44  45
ATOM     45  C   UNK d   0      -1.076   4.522  41.879  0.00  0.00     0.139 C 
ATOM     46  O   UNK d   0      -1.184   3.271  41.866  0.00  0.00    -0.650 OA
BRANCH  45  47
ATOM     47  O   UNK d   0      -1.594   5.228  42.944  0.00  0.00    -0.776 OA
ATOM     48  H   UNK d   0      -1.229   6.148  43.237  0.00  0.00     0.167 HD
ENDBRANCH  45  47
ENDBRANCH  44  45
ENDBRANCH  43  44
ENDBRANCH  27  43
BRANCH  24  49
ATOM     49  C   UNK d   0       1.199   9.717  38.913  0.00  0.00     0.052 C 
BRANCH  49  50
ATOM     50  C   UNK d   0       2.338   9.763  37.928  0.00  0.00     0.115 C 
BRANCH  50  51
ATOM     51  C   UNK d   0       2.091   9.219  36.599  0.00  0.00     0.139 C 
ATOM     52  O   UNK d   0       2.358   8.033  36.293  0.00  0.00    -0.650 OA
BRANCH  51  53
ATOM     53  O   UNK d   0       1.540  10.029  35.618  0.00  0.00    -0.776 OA
ATOM     54  H   UNK d   0       0.702  10.539  35.837  0.00  0.00     0.167 HD
ENDBRANCH  51  53
ENDBRANCH  50  51
ENDBRANCH  49  50
ENDBRANCH  24  49
BRANCH  21  55
ATOM     55  C   UNK d   0       1.411  12.093  40.876  0.00  0.00     0.151 C 
BRANCH  55  56
ATOM     56  C   UNK d   0       0.135  12.442  41.518  0.00  0.00     0.143 C 
ATOM     57  O   UNK d   0      -0.002  12.512  42.755  0.00  0.00    -0.650 OA
BRANCH  56  58
ATOM     58  O   UNK d   0      -0.958  12.703  40.692  0.00  0.00    -0.776 OA
ATOM     59  H   UNK d   0      -1.723  12.008  40.749  0.00  0.00     0.167 HD
ENDBRANCH  56  58
ENDBRANCH  55  56
ENDBRANCH  21  55
BRANCH  18  60
ATOM     60  C   UNK d   0       4.781  12.326  45.047  0.00  0.00     0.151 C 
BRANCH  60  61
ATOM     61  C   UNK d   0       3.908  13.187  45.858  0.00  0.00     0.143 C 
ATOM     62  O   UNK d   0       2.810  12.894  46.333  0.00  0.00    -0.650 OA
BRANCH  61  63
ATOM     63  O   UNK d   0       4.406  14.489  46.104  0.00  0.00    -0.776 OA
ATOM     64  H   UNK d   0       5.358  14.729  45.888  0.00  0.00     0.167 HD
ENDBRANCH  61  63
ENDBRANCH  60  61
ENDBRANCH  18  60
BRANCH  14  65
ATOM     65  C   UNK d   0       5.859  10.591  47.291  0.00  0.00     0.052 C 
BRANCH  65  66
ATOM     66  C   UNK d   0       7.245  10.157  46.972  0.00  0.00     0.115 C 
BRANCH  66  67
ATOM     67  C   UNK d   0       8.128   9.756  48.031  0.00  0.00     0.139 C 
ATOM     68  O   UNK d   0       9.126   8.998  47.744  0.00  0.00    -0.650 OA
BRANCH  67  69
ATOM     69  O   UNK d   0       8.046  10.090  49.382  0.00  0.00    -0.776 OA
ATOM     70  H   UNK d   0       8.781  10.720  49.734  0.00  0.00     0.167 HD
ENDBRANCH  67  69
ENDBRANCH  66  67
ENDBRANCH  65  66
ENDBRANCH  14  65
ENDBRANCH   6   7
ENDBRANCH   5   6
ENDBRANCH   2   5
TORSDOF 28
ENDMDL
MODEL 8
REMARK VINA RESULT:      -9.2     28.776     32.713
REMARK  28 active torsions:
REMARK  status: ('A' for Active; 'I' for Inactive)
REMARK    1  A    between atoms: C_2  and  O_3 
REMARK    2  A    between atoms: C_2  and  C_4 
REMARK    3  A    between atoms: C_4  and  C_5 
REMARK    4  A    between atoms: C_5  and  C_6 
REMARK    5  A    between atoms: C_7  and  C_8 
REMARK    6  A    between atoms: C_8  and  C_9 
REMARK    7  A    between atoms: C_9  and  O_11 
REMARK    8  A    between atoms: C_28  and  C_29 
REMARK    9  A    between atoms: C_29  and  C_30 
REMARK   10  A    between atoms: C_30  and  O_32 
REMARK   11  A    between atoms: C_33  and  C_34 
REMARK   12  A    between atoms: C_34  and  C_35 
REMARK   13  A    between atoms: C_35  and  C_36 
REMARK   14  A    between atoms: C_36  and  O_38 
REMARK   15  A    between atoms: C_39  and  C_40 
REMARK   16  A    between atoms: C_40  and  C_41 
REMARK   17  A    between atoms: C_41  and  C_42 
REMARK   18  A    between atoms: C_42  and  O_44 
REMARK   19  A    between atoms: C_45  and  C_46 
REMARK   20  A    between atoms: C_46  and  C_47 
REMARK   21  A    between atoms: C_47  and  O_49 
REMARK   22  A    between atoms: C_50  and  C_51 
REMARK   23  A    between atoms: C_51  and  C_52 
REMARK   24  A    between atoms: C_52  and  O_54 
REMARK   25  A    between atoms: C_55  and  C_56 
REMARK   26  A    between atoms: C_56  and  C_57 
REMARK   27  A    between atoms: C_57  and  C_58 
REMARK   28  A    between atoms: C_58  and  O_60 
ROOT
ATOM      1  O   UNK d   0       1.974   0.017  40.719  0.00  0.00    -0.650 OA
ATOM      2  C   UNK d   0       3.056   0.154  41.332  0.00  0.00     0.139 C 
ENDROOT
BRANCH   2   3
ATOM      3  O   UNK d   0       3.876  -0.935  41.505  0.00  0.00    -0.776 OA
ATOM      4  H   UNK d   0       3.508  -1.822  41.856  0.00  0.00     0.167 HD
ENDBRANCH   2   3
BRANCH   2   5
ATOM      5  C   UNK d   0       3.448   1.488  41.869  0.00  0.00     0.115 C 
BRANCH   5   6
ATOM      6  C   UNK d   0       4.191   1.326  43.167  0.00  0.00     0.052 C 
BRANCH   6   7
ATOM      7  C   UNK d   0       4.293   2.617  43.944  0.00  0.00    -0.020 A 
ATOM      8  C   UNK d   0       4.714   2.779  45.172  0.00  0.00    -0.011 A 
ATOM      9  C   UNK d   0       4.624   4.194  45.490  0.00  0.00     0.067 A 
ATOM     10  C   UNK d   0       4.929   5.005  46.595  0.00  0.00     0.062 C 
ATOM     11  N   UNK d   0       4.134   4.820  44.400  0.00  0.00    -0.248 NA
ATOM     12  C   UNK d   0       5.036   6.399  46.619  0.00  0.00     0.041 A 
ATOM     13  N   UNK d   0       4.273   7.356  46.057  0.00  0.00    -0.355 N 
ATOM     14  C   UNK d   0       6.131   6.987  47.277  0.00  0.00    -0.022 A 
ATOM     15  C   UNK d   0       4.861   8.536  46.335  0.00  0.00     0.042 A 
ATOM     16  H   UNK d   0       3.327   7.203  45.491  0.00  0.00     0.166 HD
ATOM     17  C   UNK d   0       4.482   9.848  45.991  0.00  0.00     0.062 C 
ATOM     18  C   UNK d   0       6.028   8.344  47.099  0.00  0.00    -0.013 A 
ATOM     19  C   UNK d   0       4.044  10.331  44.784  0.00  0.00     0.067 A 
ATOM     20  N   UNK d   0       3.738   9.430  43.847  0.00  0.00    -0.248 NA
ATOM     21  C   UNK d   0       3.820  11.644  44.203  0.00  0.00    -0.011 A 
ATOM     22  C   UNK d   0       3.332  10.058  42.695  0.00  0.00     0.066 A 
ATOM     23  C   UNK d   0       2.946   9.236  41.647  0.00  0.00     0.062 C 
ATOM     24  C   UNK d   0       3.407  11.478  42.980  0.00  0.00    -0.020 A 
ATOM     25  C   UNK d   0       2.834   7.837  41.648  0.00  0.00     0.041 A 
ATOM     26  N   UNK d   0       3.600   6.885  42.194  0.00  0.00    -0.355 N 
ATOM     27  C   UNK d   0       1.732   7.248  40.991  0.00  0.00    -0.022 A 
ATOM     28  C   UNK d   0       3.021   5.707  41.910  0.00  0.00     0.042 A 
ATOM     29  H   UNK d   0       4.556   7.040  42.753  0.00  0.00     0.166 HD
ATOM     30  C   UNK d   0       3.391   4.394  42.239  0.00  0.00     0.062 C 
ATOM     31  C   UNK d   0       1.842   5.901  41.152  0.00  0.00    -0.013 A 
ATOM     32  C   UNK d   0       3.914   3.927  43.434  0.00  0.00     0.066 A 
BRANCH   8  33
ATOM     33  C   UNK d   0       5.191   1.728  46.089  0.00  0.00     0.151 C 
BRANCH  33  34
ATOM     34  C   UNK d   0       4.163   0.711  46.378  0.00  0.00     0.143 C 
ATOM     35  O   UNK d   0       3.182   0.981  47.084  0.00  0.00    -0.650 OA
BRANCH  34  36
ATOM     36  O   UNK d   0       4.299  -0.554  45.854  0.00  0.00    -0.776 OA
ATOM     37  H   UNK d   0       3.510  -1.214  45.842  0.00  0.00     0.167 HD
ENDBRANCH  34  36
ENDBRANCH  33  34
ENDBRANCH   8  33
BRANCH  31  38
ATOM     38  C   UNK d   0       0.880   4.859  40.631  0.00  0.00     0.151 C 
BRANCH  38  39
ATOM     39  C   UNK d   0      -0.135   4.498  41.598  0.00  0.00     0.143 C 
ATOM     40  O   UNK d   0      -0.476   5.259  42.520  0.00  0.00    -0.650 OA
BRANCH  39  41
ATOM     41  O   UNK d   0      -0.761   3.255  41.503  0.00  0.00    -0.776 OA
ATOM     42  H   UNK d   0      -0.868   2.725  42.374  0.00  0.00     0.167 HD
ENDBRANCH  39  41
ENDBRANCH  38  39
ENDBRANCH  31  38
BRANCH  27  43
ATOM     43  C   UNK d   0       0.606   7.905  40.231  0.00  0.00     0.052 C 
BRANCH  43  44
ATOM     44  C   UNK d   0       0.730   7.760  38.749  0.00  0.00     0.115 C 
BRANCH  44  45
ATOM     45  C   UNK d   0       1.327   9.026  38.247  0.00  0.00     0.139 C 
ATOM     46  O   UNK d   0       2.124   8.961  37.279  0.00  0.00    -0.650 OA
BRANCH  45  47
ATOM     47  O   UNK d   0       1.037  10.257  38.795  0.00  0.00    -0.776 OA
ATOM     48  H   UNK d   0       1.036  10.431  39.813  0.00  0.00     0.167 HD
ENDBRANCH  45  47
ENDBRANCH  44  45
ENDBRANCH  43  44
ENDBRANCH  27  43
BRANCH  24  49
ATOM     49  C   UNK d   0       3.025  12.545  42.039  0.00  0.00     0.052 C 
BRANCH  49  50
ATOM     50  C   UNK d   0       1.665  12.266  41.453  0.00  0.00     0.115 C 
BRANCH  50  51
ATOM     51  C   UNK d   0       0.562  12.092  42.388  0.00  0.00     0.139 C 
ATOM     52  O   UNK d   0      -0.275  11.164  42.282  0.00  0.00    -0.650 OA
BRANCH  51  53
ATOM     53  O   UNK d   0       0.410  12.978  43.444  0.00  0.00    -0.776 OA
ATOM     54  H   UNK d   0       1.140  13.649  43.610  0.00  0.00     0.167 HD
ENDBRANCH  51  53
ENDBRANCH  50  51
ENDBRANCH  49  50
ENDBRANCH  24  49
BRANCH  21  55
ATOM     55  C   UNK d   0       4.037  12.928  44.933  0.00  0.00     0.151 C 
BRANCH  55  56
ATOM     56  C   UNK d   0       2.886  13.285  45.776  0.00  0.00     0.143 C 
ATOM     57  O   UNK d   0       2.470  12.553  46.696  0.00  0.00    -0.650 OA
BRANCH  56  58
ATOM     58  O   UNK d   0       2.245  14.497  45.522  0.00  0.00    -0.776 OA
ATOM     59  H   UNK d   0       2.069  15.081  46.359  0.00  0.00     0.167 HD
ENDBRANCH  56  58
ENDBRANCH  55  56
ENDBRANCH  21  55
BRANCH  18  60
ATOM     60  C   UNK d   0       7.004   9.363  47.634  0.00  0.00     0.151 C 
BRANCH  60  61
ATOM     61  C   UNK d   0       8.192   9.277  46.771  0.00  0.00     0.143 C 
ATOM     62  O   UNK d   0       9.361   9.135  47.130  0.00  0.00    -0.650 OA
BRANCH  61  63
ATOM     63  O   UNK d   0       7.936   9.370  45.382  0.00  0.00    -0.776 OA
ATOM     64  H   UNK d   0       6.997   9.453  45.033  0.00  0.00     0.167 HD
ENDBRANCH  61  63
ENDBRANCH  60  61
ENDBRANCH  18  60
BRANCH  14  65
ATOM     65  C   UNK d   0       7.201   6.377  48.137  0.00  0.00     0.052 C 
BRANCH  65  66
ATOM     66  C   UNK d   0       6.744   6.098  49.525  0.00  0.00     0.115 C 
BRANCH  66  67
ATOM     67  C   UNK d   0       6.208   4.807  49.852  0.00  0.00     0.139 C 
ATOM     68  O   UNK d   0       5.110   4.749  50.519  0.00  0.00    -0.650 OA
BRANCH  67  69
ATOM     69  O   UNK d   0       6.738   3.557  49.532  0.00  0.00    -0.776 OA
ATOM     70  H   UNK d   0       6.080   2.766  49.580  0.00  0.00     0.167 HD
ENDBRANCH  67  69
ENDBRANCH  66  67
ENDBRANCH  65  66
ENDBRANCH  14  65
ENDBRANCH   6   7
ENDBRANCH   5   6
ENDBRANCH   2   5
TORSDOF 28
ENDMDL
MODEL 9
REMARK VINA RESULT:      -9.1     28.247     31.630
REMARK  28 active torsions:
REMARK  status: ('A' for Active; 'I' for Inactive)
REMARK    1  A    between atoms: C_2  and  O_3 
REMARK    2  A    between atoms: C_2  and  C_4 
REMARK    3  A    between atoms: C_4  and  C_5 
REMARK    4  A    between atoms: C_5  and  C_6 
REMARK    5  A    between atoms: C_7  and  C_8 
REMARK    6  A    between atoms: C_8  and  C_9 
REMARK    7  A    between atoms: C_9  and  O_11 
REMARK    8  A    between atoms: C_28  and  C_29 
REMARK    9  A    between atoms: C_29  and  C_30 
REMARK   10  A    between atoms: C_30  and  O_32 
REMARK   11  A    between atoms: C_33  and  C_34 
REMARK   12  A    between atoms: C_34  and  C_35 
REMARK   13  A    between atoms: C_35  and  C_36 
REMARK   14  A    between atoms: C_36  and  O_38 
REMARK   15  A    between atoms: C_39  and  C_40 
REMARK   16  A    between atoms: C_40  and  C_41 
REMARK   17  A    between atoms: C_41  and  C_42 
REMARK   18  A    between atoms: C_42  and  O_44 
REMARK   19  A    between atoms: C_45  and  C_46 
REMARK   20  A    between atoms: C_46  and  C_47 
REMARK   21  A    between atoms: C_47  and  O_49 
REMARK   22  A    between atoms: C_50  and  C_51 
REMARK   23  A    between atoms: C_51  and  C_52 
REMARK   24  A    between atoms: C_52  and  O_54 
REMARK   25  A    between atoms: C_55  and  C_56 
REMARK   26  A    between atoms: C_56  and  C_57 
REMARK   27  A    between atoms: C_57  and  C_58 
REMARK   28  A    between atoms: C_58  and  O_60 
ROOT
ATOM      1  O   UNK d   0       5.166  -1.776  46.416  0.00  0.00    -0.650 OA
ATOM      2  C   UNK d   0       4.531  -0.904  45.782  0.00  0.00     0.139 C 
ENDROOT
BRANCH   2   3
ATOM      3  O   UNK d   0       4.126  -1.167  44.495  0.00  0.00    -0.776 OA
ATOM      4  H   UNK d   0       4.181  -2.111  44.108  0.00  0.00     0.167 HD
ENDBRANCH   2   3
BRANCH   2   5
ATOM      5  C   UNK d   0       4.221   0.407  46.420  0.00  0.00     0.115 C 
BRANCH   5   6
ATOM      6  C   UNK d   0       5.491   1.170  46.679  0.00  0.00     0.052 C 
BRANCH   6   7
ATOM      7  C   UNK d   0       5.268   2.662  46.757  0.00  0.00    -0.020 A 
ATOM      8  C   UNK d   0       5.460   3.445  47.787  0.00  0.00    -0.011 A 
ATOM      9  C   UNK d   0       5.102   4.797  47.391  0.00  0.00     0.067 A 
ATOM     10  C   UNK d   0       5.099   6.063  47.998  0.00  0.00     0.062 C 
ATOM     11  N   UNK d   0       4.696   4.743  46.105  0.00  0.00    -0.248 NA
ATOM     12  C   UNK d   0       4.981   7.305  47.366  0.00  0.00     0.041 A 
ATOM     13  N   UNK d   0       4.175   7.720  46.370  0.00  0.00    -0.355 N 
ATOM     14  C   UNK d   0       5.854   8.343  47.737  0.00  0.00    -0.022 A 
ATOM     15  C   UNK d   0       4.520   8.992  46.094  0.00  0.00     0.042 A 
ATOM     16  H   UNK d   0       3.365   7.131  45.884  0.00  0.00     0.166 HD
ATOM     17  C   UNK d   0       3.998   9.894  45.146  0.00  0.00     0.062 C 
ATOM     18  C   UNK d   0       5.569   9.418  46.931  0.00  0.00    -0.013 A 
ATOM     19  C   UNK d   0       3.684   9.676  43.829  0.00  0.00     0.067 A 
ATOM     20  N   UNK d   0       3.674   8.407  43.412  0.00  0.00    -0.248 NA
ATOM     21  C   UNK d   0       3.350  10.505  42.683  0.00  0.00    -0.011 A 
ATOM     22  C   UNK d   0       3.359   8.346  42.077  0.00  0.00     0.066 A 
ATOM     23  C   UNK d   0       3.275   7.078  41.520  0.00  0.00     0.062 C 
ATOM     24  C   UNK d   0       3.165   9.721  41.660  0.00  0.00    -0.020 A 
ATOM     25  C   UNK d   0       3.385   5.842  42.176  0.00  0.00     0.041 A 
ATOM     26  N   UNK d   0       4.196   5.425  43.155  0.00  0.00    -0.355 N 
ATOM     27  C   UNK d   0       2.505   4.802  41.805  0.00  0.00    -0.022 A 
ATOM     28  C   UNK d   0       3.860   4.154  43.426  0.00  0.00     0.042 A 
ATOM     29  H   UNK d   0       5.016   6.014  43.635  0.00  0.00     0.166 HD
ATOM     30  C   UNK d   0       4.376   3.242  44.360  0.00  0.00     0.062 C 
ATOM     31  C   UNK d   0       2.798   3.730  42.592  0.00  0.00    -0.013 A 
ATOM     32  C   UNK d   0       4.772   3.487  45.665  0.00  0.00     0.066 A 
BRANCH   8  33
ATOM     33  C   UNK d   0       5.948   3.049  49.121  0.00  0.00     0.151 C 
BRANCH  33  34
ATOM     34  C   UNK d   0       6.187   4.203  50.007  0.00  0.00     0.143 C 
ATOM     35  O   UNK d   0       5.312   4.595  50.791  0.00  0.00    -0.650 OA
BRANCH  34  36
ATOM     36  O   UNK d   0       7.400   4.851  49.958  0.00  0.00    -0.776 OA
ATOM     37  H   UNK d   0       8.132   4.565  49.295  0.00  0.00     0.167 HD
ENDBRANCH  34  36
ENDBRANCH  33  34
ENDBRANCH   8  33
BRANCH  31  38
ATOM     38  C   UNK d   0       2.105   2.388  42.564  0.00  0.00     0.151 C 
BRANCH  38  39
ATOM     39  C   UNK d   0       2.750   1.441  41.680  0.00  0.00     0.143 C 
ATOM     40  O   UNK d   0       3.819   1.695  41.099  0.00  0.00    -0.650 OA
BRANCH  39  41
ATOM     41  O   UNK d   0       2.162   0.195  41.463  0.00  0.00    -0.776 OA
ATOM     42  H   UNK d   0       1.144   0.140  41.567  0.00  0.00     0.167 HD
ENDBRANCH  39  41
ENDBRANCH  38  39
ENDBRANCH  31  38
BRANCH  27  43
ATOM     43  C   UNK d   0       1.423   4.790  40.754  0.00  0.00     0.052 C 
BRANCH  43  44
ATOM     44  C   UNK d   0       0.076   4.436  41.296  0.00  0.00     0.115 C 
BRANCH  44  45
ATOM     45  C   UNK d   0      -0.555   5.709  41.729  0.00  0.00     0.139 C 
ATOM     46  O   UNK d   0      -1.457   5.656  42.602  0.00  0.00    -0.650 OA
BRANCH  45  47
ATOM     47  O   UNK d   0      -0.190   6.936  41.218  0.00  0.00    -0.776 OA
ATOM     48  H   UNK d   0       0.043   7.745  41.816  0.00  0.00     0.167 HD
ENDBRANCH  45  47
ENDBRANCH  44  45
ENDBRANCH  43  44
ENDBRANCH  27  43
BRANCH  24  49
ATOM     49  C   UNK d   0       2.772  10.141  40.304  0.00  0.00     0.052 C 
BRANCH  49  50
ATOM     50  C   UNK d   0       1.306   9.877  40.077  0.00  0.00     0.115 C 
BRANCH  50  51
ATOM     51  C   UNK d   0       0.932   9.227  38.828  0.00  0.00     0.139 C 
ATOM     52  O   UNK d   0       0.803   7.984  38.725  0.00  0.00    -0.650 OA
BRANCH  51  53
ATOM     53  O   UNK d   0       0.709   9.994  37.695  0.00  0.00    -0.776 OA
ATOM     54  H   UNK d   0       0.107   9.624  36.982  0.00  0.00     0.167 HD
ENDBRANCH  51  53
ENDBRANCH  50  51
ENDBRANCH  49  50
ENDBRANCH  24  49
BRANCH  21  55
ATOM     55  C   UNK d   0       3.247  11.993  42.731  0.00  0.00     0.151 C 
BRANCH  55  56
ATOM     56  C   UNK d   0       2.065  12.440  43.484  0.00  0.00     0.143 C 
ATOM     57  O   UNK d   0       2.144  12.975  44.608  0.00  0.00    -0.650 OA
BRANCH  56  58
ATOM     58  O   UNK d   0       0.814  12.249  42.902  0.00  0.00    -0.776 OA
ATOM     59  H   UNK d   0       0.684  12.713  41.985  0.00  0.00     0.167 HD
ENDBRANCH  56  58
ENDBRANCH  55  56
ENDBRANCH  21  55
BRANCH  18  60
ATOM     60  C   UNK d   0       6.277  10.749  46.983  0.00  0.00     0.151 C 
BRANCH  60  61
ATOM     61  C   UNK d   0       7.609  10.521  46.403  0.00  0.00     0.143 C 
ATOM     62  O   UNK d   0       7.887   9.806  45.439  0.00  0.00    -0.650 OA
BRANCH  61  63
ATOM     63  O   UNK d   0       8.670  11.209  47.041  0.00  0.00    -0.776 OA
ATOM     64  H   UNK d   0       9.628  11.001  46.822  0.00  0.00     0.167 HD
ENDBRANCH  61  63
ENDBRANCH  60  61
ENDBRANCH  18  60
BRANCH  14  65
ATOM     65  C   UNK d   0       6.859   8.429  48.850  0.00  0.00     0.052 C 
BRANCH  65  66
ATOM     66  C   UNK d   0       8.217   7.976  48.444  0.00  0.00     0.115 C 
BRANCH  66  67
ATOM     67  C   UNK d   0       9.369   8.449  49.158  0.00  0.00     0.139 C 
ATOM     68  O   UNK d   0      10.078   9.383  48.630  0.00  0.00    -0.650 OA
BRANCH  67  69
ATOM     69  O   UNK d   0       9.842   8.017  50.397  0.00  0.00    -0.776 OA
ATOM     70  H   UNK d   0       9.918   6.997  50.516  0.00  0.00     0.167 HD
ENDBRANCH  67  69
ENDBRANCH  66  67
ENDBRANCH  65  66
ENDBRANCH  14  65
ENDBRANCH   6   7
ENDBRANCH   5   6
ENDBRANCH   2   5
TORSDOF 28
ENDMDL
MODEL 10
REMARK VINA RESULT:      -9.0      2.179      9.305
REMARK  28 active torsions:
REMARK  status: ('A' for Active; 'I' for Inactive)
REMARK    1  A    between atoms: C_2  and  O_3 
REMARK    2  A    between atoms: C_2  and  C_4 
REMARK    3  A    between atoms: C_4  and  C_5 
REMARK    4  A    between atoms: C_5  and  C_6 
REMARK    5  A    between atoms: C_7  and  C_8 
REMARK    6  A    between atoms: C_8  and  C_9 
REMARK    7  A    between atoms: C_9  and  O_11 
REMARK    8  A    between atoms: C_28  and  C_29 
REMARK    9  A    between atoms: C_29  and  C_30 
REMARK   10  A    between atoms: C_30  and  O_32 
REMARK   11  A    between atoms: C_33  and  C_34 
REMARK   12  A    between atoms: C_34  and  C_35 
REMARK   13  A    between atoms: C_35  and  C_36 
REMARK   14  A    between atoms: C_36  and  O_38 
REMARK   15  A    between atoms: C_39  and  C_40 
REMARK   16  A    between atoms: C_40  and  C_41 
REMARK   17  A    between atoms: C_41  and  C_42 
REMARK   18  A    between atoms: C_42  and  O_44 
REMARK   19  A    between atoms: C_45  and  C_46 
REMARK   20  A    between atoms: C_46  and  C_47 
REMARK   21  A    between atoms: C_47  and  O_49 
REMARK   22  A    between atoms: C_50  and  C_51 
REMARK   23  A    between atoms: C_51  and  C_52 
REMARK   24  A    between atoms: C_52  and  O_54 
REMARK   25  A    between atoms: C_55  and  C_56 
REMARK   26  A    between atoms: C_56  and  C_57 
REMARK   27  A    between atoms: C_57  and  C_58 
REMARK   28  A    between atoms: C_58  and  O_60 
ROOT
ATOM      1  O   UNK d   0      32.844   3.450  39.343  0.00  0.00    -0.650 OA
ATOM      2  C   UNK d   0      32.000   2.554  39.117  0.00  0.00     0.139 C 
ENDROOT
BRANCH   2   3
ATOM      3  O   UNK d   0      30.805   2.569  39.794  0.00  0.00    -0.776 OA
ATOM      4  H   UNK d   0      30.776   2.627  40.814  0.00  0.00     0.167 HD
ENDBRANCH   2   3
BRANCH   2   5
ATOM      5  C   UNK d   0      32.294   1.483  38.124  0.00  0.00     0.115 C 
BRANCH   5   6
ATOM      6  C   UNK d   0      31.153   0.504  38.064  0.00  0.00     0.052 C 
BRANCH   6   7
ATOM      7  C   UNK d   0      31.547  -0.878  38.528  0.00  0.00    -0.020 A 
ATOM      8  C   UNK d   0      31.418  -2.005  37.877  0.00  0.00    -0.011 A 
ATOM      9  C   UNK d   0      31.927  -3.070  38.726  0.00  0.00     0.067 A 
ATOM     10  C   UNK d   0      32.090  -4.460  38.619  0.00  0.00     0.062 C 
ATOM     11  N   UNK d   0      32.340  -2.501  39.879  0.00  0.00    -0.248 NA
ATOM     12  C   UNK d   0      32.862  -5.288  39.442  0.00  0.00     0.041 A 
ATOM     13  N   UNK d   0      33.010  -5.318  40.780  0.00  0.00    -0.355 N 
ATOM     14  C   UNK d   0      33.698  -6.250  38.847  0.00  0.00    -0.022 A 
ATOM     15  C   UNK d   0      33.926  -6.268  41.048  0.00  0.00     0.042 A 
ATOM     16  H   UNK d   0      32.465  -4.693  41.521  0.00  0.00     0.166 HD
ATOM     17  C   UNK d   0      34.449  -6.711  42.280  0.00  0.00     0.062 C 
ATOM     18  C   UNK d   0      34.380  -6.874  39.861  0.00  0.00    -0.013 A 
ATOM     19  C   UNK d   0      34.879  -5.969  43.350  0.00  0.00     0.067 A 
ATOM     20  N   UNK d   0      34.597  -4.664  43.334  0.00  0.00    -0.248 NA
ATOM     21  C   UNK d   0      35.619  -6.231  44.573  0.00  0.00    -0.011 A 
ATOM     22  C   UNK d   0      35.101  -4.053  44.456  0.00  0.00     0.066 A 
ATOM     23  C   UNK d   0      34.846  -2.696  44.587  0.00  0.00     0.062 C 
ATOM     24  C   UNK d   0      35.749  -5.105  45.214  0.00  0.00    -0.020 A 
ATOM     25  C   UNK d   0      34.058  -1.885  43.756  0.00  0.00     0.041 A 
ATOM     26  N   UNK d   0      33.921  -1.845  42.425  0.00  0.00    -0.355 N 
ATOM     27  C   UNK d   0      33.215  -0.923  44.354  0.00  0.00    -0.022 A 
ATOM     28  C   UNK d   0      33.015  -0.892  42.154  0.00  0.00     0.042 A 
ATOM     29  H   UNK d   0      34.477  -2.466  41.681  0.00  0.00     0.166 HD
ATOM     30  C   UNK d   0      32.492  -0.435  40.934  0.00  0.00     0.062 C 
ATOM     31  C   UNK d   0      32.551  -0.290  43.348  0.00  0.00    -0.013 A 
ATOM     32  C   UNK d   0      32.139  -1.183  39.822  0.00  0.00     0.066 A 
BRANCH   8  33
ATOM     33  C   UNK d   0      30.856  -2.188  36.526  0.00  0.00     0.151 C 
BRANCH  33  34
ATOM     34  C   UNK d   0      29.667  -3.059  36.516  0.00  0.00     0.143 C 
ATOM     35  O   UNK d   0      29.095  -3.368  37.571  0.00  0.00    -0.650 OA
BRANCH  34  36
ATOM     36  O   UNK d   0      29.188  -3.534  35.317  0.00  0.00    -0.776 OA
ATOM     37  H   UNK d   0      29.016  -2.904  34.523  0.00  0.00     0.167 HD
ENDBRANCH  34  36
ENDBRANCH  33  34
ENDBRANCH   8  33
BRANCH  31  38
ATOM     38  C   UNK d   0      31.528   0.810  43.509  0.00  0.00     0.151 C 
BRANCH  38  39
ATOM     39  C   UNK d   0      32.022   2.102  43.085  0.00  0.00     0.143 C 
ATOM     40  O   UNK d   0      31.267   3.001  42.674  0.00  0.00    -0.650 OA
BRANCH  39  41
ATOM     41  O   UNK d   0      33.391   2.364  43.134  0.00  0.00    -0.776 OA
ATOM     42  H   UNK d   0      34.018   1.558  43.043  0.00  0.00     0.167 HD
ENDBRANCH  39  41
ENDBRANCH  38  39
ENDBRANCH  31  38
BRANCH  27  43
ATOM     43  C   UNK d   0      33.025  -0.590  45.813  0.00  0.00     0.052 C 
BRANCH  43  44
ATOM     44  C   UNK d   0      34.291  -0.185  46.497  0.00  0.00     0.115 C 
BRANCH  44  45
ATOM     45  C   UNK d   0      34.279   1.299  46.566  0.00  0.00     0.139 C 
ATOM     46  O   UNK d   0      34.519   1.942  45.514  0.00  0.00    -0.650 OA
BRANCH  45  47
ATOM     47  O   UNK d   0      34.013   1.991  47.727  0.00  0.00    -0.776 OA
ATOM     48  H   UNK d   0      33.917   1.529  48.646  0.00  0.00     0.167 HD
ENDBRANCH  45  47
ENDBRANCH  44  45
ENDBRANCH  43  44
ENDBRANCH  27  43
BRANCH  24  49
ATOM     49  C   UNK d   0      36.401  -4.921  46.521  0.00  0.00     0.052 C 
BRANCH  49  50
ATOM     50  C   UNK d   0      35.635  -5.646  47.597  0.00  0.00     0.115 C 
BRANCH  50  51
ATOM     51  C   UNK d   0      34.354  -5.079  47.998  0.00  0.00     0.139 C 
ATOM     52  O   UNK d   0      34.162  -3.844  48.096  0.00  0.00    -0.650 OA
BRANCH  51  53
ATOM     53  O   UNK d   0      33.292  -5.921  48.291  0.00  0.00    -0.776 OA
ATOM     54  H   UNK d   0      32.433  -5.509  48.610  0.00  0.00     0.167 HD
ENDBRANCH  51  53
ENDBRANCH  50  51
ENDBRANCH  49  50
ENDBRANCH  24  49
BRANCH  21  55
ATOM     55  C   UNK d   0      36.116  -7.580  44.975  0.00  0.00     0.151 C 
BRANCH  55  56
ATOM     56  C   UNK d   0      37.454  -7.860  44.432  0.00  0.00     0.143 C 
ATOM     57  O   UNK d   0      37.950  -7.210  43.491  0.00  0.00    -0.650 OA
BRANCH  56  58
ATOM     58  O   UNK d   0      38.183  -8.900  45.006  0.00  0.00    -0.776 OA
ATOM     59  H   UNK d   0      37.680  -9.804  45.068  0.00  0.00     0.167 HD
ENDBRANCH  56  58
ENDBRANCH  55  56
ENDBRANCH  21  55
BRANCH  18  60
ATOM     60  C   UNK d   0      35.396  -7.974  39.671  0.00  0.00     0.151 C 
BRANCH  60  61
ATOM     61  C   UNK d   0      36.664  -7.301  39.354  0.00  0.00     0.143 C 
ATOM     62  O   UNK d   0      37.036  -6.900  38.251  0.00  0.00    -0.650 OA
BRANCH  61  63
ATOM     63  O   UNK d   0      37.534  -7.105  40.454  0.00  0.00    -0.776 OA
ATOM     64  H   UNK d   0      37.637  -6.201  40.878  0.00  0.00     0.167 HD
ENDBRANCH  61  63
ENDBRANCH  60  61
ENDBRANCH  18  60
BRANCH  14  65
ATOM     65  C   UNK d   0      33.827  -6.686  37.415  0.00  0.00     0.052 C 
BRANCH  65  66
ATOM     66  C   UNK d   0      32.614  -7.380  36.906  0.00  0.00     0.115 C 
BRANCH  66  67
ATOM     67  C   UNK d   0      31.988  -6.925  35.697  0.00  0.00     0.139 C 
ATOM     68  O   UNK d   0      31.699  -7.792  34.792  0.00  0.00    -0.650 OA
BRANCH  67  69
ATOM     69  O   UNK d   0      31.637  -5.619  35.357  0.00  0.00    -0.776 OA
ATOM     70  H   UNK d   0      30.629  -5.409  35.368  0.00  0.00     0.167 HD
ENDBRANCH  67  69
ENDBRANCH  66  67
ENDBRANCH  65  66
ENDBRANCH  14  65
ENDBRANCH   6   7
ENDBRANCH   5   6
ENDBRANCH   2   5
TORSDOF 28
ENDMDL
MODEL 11
REMARK VINA RESULT:      -8.7      1.655      7.785
REMARK  28 active torsions:
REMARK  status: ('A' for Active; 'I' for Inactive)
REMARK    1  A    between atoms: C_2  and  O_3 
REMARK    2  A    between atoms: C_2  and  C_4 
REMARK    3  A    between atoms: C_4  and  C_5 
REMARK    4  A    between atoms: C_5  and  C_6 
REMARK    5  A    between atoms: C_7  and  C_8 
REMARK    6  A    between atoms: C_8  and  C_9 
REMARK    7  A    between atoms: C_9  and  O_11 
REMARK    8  A    between atoms: C_28  and  C_29 
REMARK    9  A    between atoms: C_29  and  C_30 
REMARK   10  A    between atoms: C_30  and  O_32 
REMARK   11  A    between atoms: C_33  and  C_34 
REMARK   12  A    between atoms: C_34  and  C_35 
REMARK   13  A    between atoms: C_35  and  C_36 
REMARK   14  A    between atoms: C_36  and  O_38 
REMARK   15  A    between atoms: C_39  and  C_40 
REMARK   16  A    between atoms: C_40  and  C_41 
REMARK   17  A    between atoms: C_41  and  C_42 
REMARK   18  A    between atoms: C_42  and  O_44 
REMARK   19  A    between atoms: C_45  and  C_46 
REMARK   20  A    between atoms: C_46  and  C_47 
REMARK   21  A    between atoms: C_47  and  O_49 
REMARK   22  A    between atoms: C_50  and  C_51 
REMARK   23  A    between atoms: C_51  and  C_52 
REMARK   24  A    between atoms: C_52  and  O_54 
REMARK   25  A    between atoms: C_55  and  C_56 
REMARK   26  A    between atoms: C_56  and  C_57 
REMARK   27  A    between atoms: C_57  and  C_58 
REMARK   28  A    between atoms: C_58  and  O_60 
ROOT
ATOM      1  O   UNK d   0      36.306   1.645  47.723  0.00  0.00    -0.650 OA
ATOM      2  C   UNK d   0      36.677   0.639  48.368  0.00  0.00     0.139 C 
ENDROOT
BRANCH   2   3
ATOM      3  O   UNK d   0      36.891   0.747  49.721  0.00  0.00    -0.776 OA
ATOM      4  H   UNK d   0      37.614   0.194  50.186  0.00  0.00     0.167 HD
ENDBRANCH   2   3
BRANCH   2   5
ATOM      5  C   UNK d   0      36.883  -0.662  47.670  0.00  0.00     0.115 C 
BRANCH   5   6
ATOM      6  C   UNK d   0      35.596  -1.440  47.633  0.00  0.00     0.052 C 
BRANCH   6   7
ATOM      7  C   UNK d   0      35.557  -2.446  46.508  0.00  0.00    -0.020 A 
ATOM      8  C   UNK d   0      36.143  -3.615  46.461  0.00  0.00    -0.011 A 
ATOM      9  C   UNK d   0      35.827  -4.220  45.178  0.00  0.00     0.067 A 
ATOM     10  C   UNK d   0      36.116  -5.432  44.532  0.00  0.00     0.062 C 
ATOM     11  N   UNK d   0      35.048  -3.348  44.505  0.00  0.00    -0.248 NA
ATOM     12  C   UNK d   0      35.488  -5.958  43.398  0.00  0.00     0.041 A 
ATOM     13  N   UNK d   0      35.100  -5.374  42.248  0.00  0.00    -0.355 N 
ATOM     14  C   UNK d   0      35.113  -7.314  43.394  0.00  0.00    -0.022 A 
ATOM     15  C   UNK d   0      34.482  -6.322  41.519  0.00  0.00     0.042 A 
ATOM     16  H   UNK d   0      35.278  -4.317  41.950  0.00  0.00     0.166 HD
ATOM     17  C   UNK d   0      33.890  -6.251  40.242  0.00  0.00     0.062 C 
ATOM     18  C   UNK d   0      34.470  -7.551  42.205  0.00  0.00    -0.013 A 
ATOM     19  C   UNK d   0      33.058  -5.288  39.729  0.00  0.00     0.067 A 
ATOM     20  N   UNK d   0      32.930  -4.162  40.435  0.00  0.00    -0.248 NA
ATOM     21  C   UNK d   0      32.211  -5.157  38.556  0.00  0.00    -0.011 A 
ATOM     22  C   UNK d   0      32.059  -3.304  39.809  0.00  0.00     0.066 A 
ATOM     23  C   UNK d   0      31.861  -2.074  40.417  0.00  0.00     0.062 C 
ATOM     24  C   UNK d   0      31.626  -3.996  38.610  0.00  0.00    -0.020 A 
ATOM     25  C   UNK d   0      32.511  -1.559  41.550  0.00  0.00     0.041 A 
ATOM     26  N   UNK d   0      32.883  -2.137  42.699  0.00  0.00    -0.355 N 
ATOM     27  C   UNK d   0      32.892  -0.200  41.550  0.00  0.00    -0.022 A 
ATOM     28  C   UNK d   0      33.492  -1.191  43.431  0.00  0.00     0.042 A 
ATOM     29  H   UNK d   0      32.695  -3.196  43.001  0.00  0.00     0.166 HD
ATOM     30  C   UNK d   0      34.077  -1.245  44.706  0.00  0.00     0.062 C 
ATOM     31  C   UNK d   0      33.514   0.042  42.737  0.00  0.00    -0.013 A 
ATOM     32  C   UNK d   0      34.848  -2.260  45.251  0.00  0.00     0.066 A 
BRANCH   8  33
ATOM     33  C   UNK d   0      36.983  -4.226  47.508  0.00  0.00     0.151 C 
BRANCH  33  34
ATOM     34  C   UNK d   0      36.357  -5.409  48.124  0.00  0.00     0.143 C 
ATOM     35  O   UNK d   0      36.756  -6.552  47.859  0.00  0.00    -0.650 OA
BRANCH  34  36
ATOM     36  O   UNK d   0      35.313  -5.239  49.005  0.00  0.00    -0.776 OA
ATOM     37  H   UNK d   0      35.478  -5.140  50.016  0.00  0.00     0.167 HD
ENDBRANCH  34  36
ENDBRANCH  33  34
ENDBRANCH   8  33
BRANCH  31  38
ATOM     38  C   UNK d   0      34.105   1.359  43.181  0.00  0.00     0.151 C 
BRANCH  38  39
ATOM     39  C   UNK d   0      33.487   1.875  44.384  0.00  0.00     0.143 C 
ATOM     40  O   UNK d   0      32.253   1.951  44.518  0.00  0.00    -0.650 OA
BRANCH  39  41
ATOM     41  O   UNK d   0      34.292   2.305  45.439  0.00  0.00    -0.776 OA
ATOM     42  H   UNK d   0      33.836   2.423  46.349  0.00  0.00     0.167 HD
ENDBRANCH  39  41
ENDBRANCH  38  39
ENDBRANCH  31  38
BRANCH  27  43
ATOM     43  C   UNK d   0      32.688   0.853  40.490  0.00  0.00     0.052 C 
BRANCH  43  44
ATOM     44  C   UNK d   0      31.590   1.813  40.814  0.00  0.00     0.115 C 
BRANCH  44  45
ATOM     45  C   UNK d   0      31.194   2.454  39.533  0.00  0.00     0.139 C 
ATOM     46  O   UNK d   0      31.237   3.707  39.460  0.00  0.00    -0.650 OA
BRANCH  45  47
ATOM     47  O   UNK d   0      30.791   1.733  38.430  0.00  0.00    -0.776 OA
ATOM     48  H   UNK d   0      29.820   1.409  38.296  0.00  0.00     0.167 HD
ENDBRANCH  45  47
ENDBRANCH  44  45
ENDBRANCH  43  44
ENDBRANCH  27  43
BRANCH  24  49
ATOM     49  C   UNK d   0      30.709  -3.437  37.602  0.00  0.00     0.052 C 
BRANCH  49  50
ATOM     50  C   UNK d   0      31.404  -2.367  36.798  0.00  0.00     0.115 C 
BRANCH  50  51
ATOM     51  C   UNK d   0      30.597  -1.236  36.359  0.00  0.00     0.139 C 
ATOM     52  O   UNK d   0      29.744  -0.688  37.096  0.00  0.00    -0.650 OA
BRANCH  51  53
ATOM     53  O   UNK d   0      30.761  -0.732  35.078  0.00  0.00    -0.776 OA
ATOM     54  H   UNK d   0      29.951  -0.660  34.488  0.00  0.00     0.167 HD
ENDBRANCH  51  53
ENDBRANCH  50  51
ENDBRANCH  49  50
ENDBRANCH  24  49
BRANCH  21  55
ATOM     55  C   UNK d   0      32.078  -6.204  37.500  0.00  0.00     0.151 C 
BRANCH  55  56
ATOM     56  C   UNK d   0      33.320  -6.371  36.729  0.00  0.00     0.143 C 
ATOM     57  O   UNK d   0      33.983  -7.427  36.737  0.00  0.00    -0.650 OA
BRANCH  56  58
ATOM     58  O   UNK d   0      33.758  -5.292  35.964  0.00  0.00    -0.776 OA
ATOM     59  H   UNK d   0      34.478  -5.523  35.255  0.00  0.00     0.167 HD
ENDBRANCH  56  58
ENDBRANCH  55  56
ENDBRANCH  21  55
BRANCH  18  60
ATOM     60  C   UNK d   0      33.891  -8.880  41.786  0.00  0.00     0.151 C 
BRANCH  60  61
ATOM     61  C   UNK d   0      32.858  -9.203  42.782  0.00  0.00     0.143 C 
ATOM     62  O   UNK d   0      32.074  -8.420  43.318  0.00  0.00    -0.650 OA
BRANCH  61  63
ATOM     63  O   UNK d   0      32.777 -10.569  43.145  0.00  0.00    -0.776 OA
ATOM     64  H   UNK d   0      32.944 -10.864  44.091  0.00  0.00     0.167 HD
ENDBRANCH  61  63
ENDBRANCH  60  61
ENDBRANCH  18  60
BRANCH  14  65
ATOM     65  C   UNK d   0      35.400  -8.413  44.377  0.00  0.00     0.052 C 
BRANCH  65  66
ATOM     66  C   UNK d   0      34.677  -8.244  45.667  0.00  0.00     0.115 C 
BRANCH  66  67
ATOM     67  C   UNK d   0      34.193  -9.399  46.368  0.00  0.00     0.139 C 
ATOM     68  O   UNK d   0      34.129 -10.518  45.737  0.00  0.00    -0.650 OA
BRANCH  67  69
ATOM     69  O   UNK d   0      33.765  -9.476  47.693  0.00  0.00    -0.776 OA
ATOM     70  H   UNK d   0      34.425  -9.914  48.352  0.00  0.00     0.167 HD
ENDBRANCH  67  69
ENDBRANCH  66  67
ENDBRANCH  65  66
ENDBRANCH  14  65
ENDBRANCH   6   7
ENDBRANCH   5   6
ENDBRANCH   2   5
TORSDOF 28
ENDMDL
MODEL 12
REMARK VINA RESULT:      -8.6      2.195      9.151
REMARK  28 active torsions:
REMARK  status: ('A' for Active; 'I' for Inactive)
REMARK    1  A    between atoms: C_2  and  O_3 
REMARK    2  A    between atoms: C_2  and  C_4 
REMARK    3  A    between atoms: C_4  and  C_5 
REMARK    4  A    between atoms: C_5  and  C_6 
REMARK    5  A    between atoms: C_7  and  C_8 
REMARK    6  A    between atoms: C_8  and  C_9 
REMARK    7  A    between atoms: C_9  and  O_11 
REMARK    8  A    between atoms: C_28  and  C_29 
REMARK    9  A    between atoms: C_29  and  C_30 
REMARK   10  A    between atoms: C_30  and  O_32 
REMARK   11  A    between atoms: C_33  and  C_34 
REMARK   12  A    between atoms: C_34  and  C_35 
REMARK   13  A    between atoms: C_35  and  C_36 
REMARK   14  A    between atoms: C_36  and  O_38 
REMARK   15  A    between atoms: C_39  and  C_40 
REMARK   16  A    between atoms: C_40  and  C_41 
REMARK   17  A    between atoms: C_41  and  C_42 
REMARK   18  A    between atoms: C_42  and  O_44 
REMARK   19  A    between atoms: C_45  and  C_46 
REMARK   20  A    between atoms: C_46  and  C_47 
REMARK   21  A    between atoms: C_47  and  O_49 
REMARK   22  A    between atoms: C_50  and  C_51 
REMARK   23  A    between atoms: C_51  and  C_52 
REMARK   24  A    between atoms: C_52  and  O_54 
REMARK   25  A    between atoms: C_55  and  C_56 
REMARK   26  A    between atoms: C_56  and  C_57 
REMARK   27  A    between atoms: C_57  and  C_58 
REMARK   28  A    between atoms: C_58  and  O_60 
ROOT
ATOM      1  O   UNK d   0      33.086   4.228  39.451  0.00  0.00    -0.650 OA
ATOM      2  C   UNK d   0      31.943   3.963  39.886  0.00  0.00     0.139 C 
ENDROOT
BRANCH   2   3
ATOM      3  O   UNK d   0      31.355   4.810  40.794  0.00  0.00    -0.776 OA
ATOM      4  H   UNK d   0      31.390   4.614  41.797  0.00  0.00     0.167 HD
ENDBRANCH   2   3
BRANCH   2   5
ATOM      5  C   UNK d   0      31.231   2.739  39.420  0.00  0.00     0.115 C 
BRANCH   5   6
ATOM      6  C   UNK d   0      32.163   1.871  38.619  0.00  0.00     0.052 C 
BRANCH   6   7
ATOM      7  C   UNK d   0      32.242   0.459  39.149  0.00  0.00    -0.020 A 
ATOM      8  C   UNK d   0      31.887  -0.643  38.540  0.00  0.00    -0.011 A 
ATOM      9  C   UNK d   0      32.138  -1.752  39.445  0.00  0.00     0.067 A 
ATOM     10  C   UNK d   0      32.001  -3.148  39.397  0.00  0.00     0.062 C 
ATOM     11  N   UNK d   0      32.640  -1.233  40.585  0.00  0.00    -0.248 NA
ATOM     12  C   UNK d   0      32.560  -4.084  40.274  0.00  0.00     0.041 A 
ATOM     13  N   UNK d   0      32.672  -4.085  41.616  0.00  0.00    -0.355 N 
ATOM     14  C   UNK d   0      33.182  -5.228  39.742  0.00  0.00    -0.022 A 
ATOM     15  C   UNK d   0      33.356  -5.197  41.949  0.00  0.00     0.042 A 
ATOM     16  H   UNK d   0      32.259  -3.326  42.316  0.00  0.00     0.166 HD
ATOM     17  C   UNK d   0      33.747  -5.685  43.211  0.00  0.00     0.062 C 
ATOM     18  C   UNK d   0      33.694  -5.938  40.800  0.00  0.00    -0.013 A 
ATOM     19  C   UNK d   0      34.305  -5.005  44.264  0.00  0.00     0.067 A 
ATOM     20  N   UNK d   0      34.310  -3.671  44.188  0.00  0.00    -0.248 NA
ATOM     21  C   UNK d   0      34.947  -5.364  45.517  0.00  0.00    -0.011 A 
ATOM     22  C   UNK d   0      34.910  -3.133  45.299  0.00  0.00     0.066 A 
ATOM     23  C   UNK d   0      34.950  -1.748  45.369  0.00  0.00     0.062 C 
ATOM     24  C   UNK d   0      35.303  -4.264  46.117  0.00  0.00    -0.020 A 
ATOM     25  C   UNK d   0      34.372  -0.825  44.484  0.00  0.00     0.041 A 
ATOM     26  N   UNK d   0      34.273  -0.817  43.149  0.00  0.00    -0.355 N 
ATOM     27  C   UNK d   0      33.743   0.320  45.019  0.00  0.00    -0.022 A 
ATOM     28  C   UNK d   0      33.599   0.295  42.814  0.00  0.00     0.042 A 
ATOM     29  H   UNK d   0      34.699  -1.575  42.446  0.00  0.00     0.166 HD
ATOM     30  C   UNK d   0      33.211   0.797  41.562  0.00  0.00     0.062 C 
ATOM     31  C   UNK d   0      33.251   1.034  43.969  0.00  0.00    -0.013 A 
ATOM     32  C   UNK d   0      32.728   0.093  40.471  0.00  0.00     0.066 A 
BRANCH   8  33
ATOM     33  C   UNK d   0      31.327  -0.762  37.181  0.00  0.00     0.151 C 
BRANCH  33  34
ATOM     34  C   UNK d   0      30.697  -2.072  36.936  0.00  0.00     0.143 C 
ATOM     35  O   UNK d   0      29.525  -2.288  37.277  0.00  0.00    -0.650 OA
BRANCH  34  36
ATOM     36  O   UNK d   0      31.423  -3.066  36.323  0.00  0.00    -0.776 OA
ATOM     37  H   UNK d   0      31.525  -3.995  36.753  0.00  0.00     0.167 HD
ENDBRANCH  34  36
ENDBRANCH  33  34
ENDBRANCH   8  33
BRANCH  31  38
ATOM     38  C   UNK d   0      32.485   2.333  44.056  0.00  0.00     0.151 C 
BRANCH  38  39
ATOM     39  C   UNK d   0      31.052   2.137  44.118  0.00  0.00     0.143 C 
ATOM     40  O   UNK d   0      30.360   2.578  45.052  0.00  0.00    -0.650 OA
BRANCH  39  41
ATOM     41  O   UNK d   0      30.412   1.432  43.099  0.00  0.00    -0.776 OA
ATOM     42  H   UNK d   0      29.955   0.553  43.364  0.00  0.00     0.167 HD
ENDBRANCH  39  41
ENDBRANCH  38  39
ENDBRANCH  31  38
BRANCH  27  43
ATOM     43  C   UNK d   0      33.600   0.751  46.457  0.00  0.00     0.052 C 
BRANCH  43  44
ATOM     44  C   UNK d   0      34.373   1.987  46.784  0.00  0.00     0.115 C 
BRANCH  44  45
ATOM     45  C   UNK d   0      35.467   1.573  47.701  0.00  0.00     0.139 C 
ATOM     46  O   UNK d   0      36.182   0.597  47.367  0.00  0.00    -0.650 OA
BRANCH  45  47
ATOM     47  O   UNK d   0      35.727   2.217  48.891  0.00  0.00    -0.776 OA
ATOM     48  H   UNK d   0      36.647   2.178  49.360  0.00  0.00     0.167 HD
ENDBRANCH  45  47
ENDBRANCH  44  45
ENDBRANCH  43  44
ENDBRANCH  27  43
BRANCH  24  49
ATOM     49  C   UNK d   0      35.952  -4.165  47.435  0.00  0.00     0.052 C 
BRANCH  49  50
ATOM     50  C   UNK d   0      37.450  -4.256  47.289  0.00  0.00     0.115 C 
BRANCH  50  51
ATOM     51  C   UNK d   0      38.195  -3.004  47.290  0.00  0.00     0.139 C 
ATOM     52  O   UNK d   0      39.407  -2.939  46.976  0.00  0.00    -0.650 OA
BRANCH  51  53
ATOM     53  O   UNK d   0      37.559  -1.827  47.651  0.00  0.00    -0.776 OA
ATOM     54  H   UNK d   0      38.042  -0.959  47.498  0.00  0.00     0.167 HD
ENDBRANCH  51  53
ENDBRANCH  50  51
ENDBRANCH  49  50
ENDBRANCH  24  49
BRANCH  21  55
ATOM     55  C   UNK d   0      35.134  -6.769  45.987  0.00  0.00     0.151 C 
BRANCH  55  56
ATOM     56  C   UNK d   0      36.258  -7.432  45.310  0.00  0.00     0.143 C 
ATOM     57  O   UNK d   0      36.269  -8.652  45.056  0.00  0.00    -0.650 OA
BRANCH  56  58
ATOM     58  O   UNK d   0      37.350  -6.646  44.943  0.00  0.00    -0.776 OA
ATOM     59  H   UNK d   0      38.131  -7.163  44.501  0.00  0.00     0.167 HD
ENDBRANCH  56  58
ENDBRANCH  55  56
ENDBRANCH  21  55
BRANCH  18  60
ATOM     60  C   UNK d   0      34.453  -7.237  40.683  0.00  0.00     0.151 C 
BRANCH  60  61
ATOM     61  C   UNK d   0      35.843  -6.865  40.379  0.00  0.00     0.143 C 
ATOM     62  O   UNK d   0      36.426  -6.992  39.302  0.00  0.00    -0.650 OA
BRANCH  61  63
ATOM     63  O   UNK d   0      36.567  -6.303  41.458  0.00  0.00    -0.776 OA
ATOM     64  H   UNK d   0      36.430  -6.628  42.399  0.00  0.00     0.167 HD
ENDBRANCH  61  63
ENDBRANCH  60  61
ENDBRANCH  18  60
BRANCH  14  65
ATOM     65  C   UNK d   0      33.244  -5.746  38.333  0.00  0.00     0.052 C 
BRANCH  65  66
ATOM     66  C   UNK d   0      31.953  -6.320  37.867  0.00  0.00     0.115 C 
BRANCH  66  67
ATOM     67  C   UNK d   0      31.768  -6.618  36.475  0.00  0.00     0.139 C 
ATOM     68  O   UNK d   0      31.056  -5.816  35.765  0.00  0.00    -0.650 OA
BRANCH  67  69
ATOM     69  O   UNK d   0      32.274  -7.703  35.760  0.00  0.00    -0.776 OA
ATOM     70  H   UNK d   0      33.224  -7.584  35.378  0.00  0.00     0.167 HD
ENDBRANCH  67  69
ENDBRANCH  66  67
ENDBRANCH  65  66
ENDBRANCH  14  65
ENDBRANCH   6   7
ENDBRANCH   5   6
ENDBRANCH   2   5
TORSDOF 28
ENDMDL
MODEL 13
REMARK VINA RESULT:      -8.5      1.278      7.363
REMARK  28 active torsions:
REMARK  status: ('A' for Active; 'I' for Inactive)
REMARK    1  A    between atoms: C_2  and  O_3 
REMARK    2  A    between atoms: C_2  and  C_4 
REMARK    3  A    between atoms: C_4  and  C_5 
REMARK    4  A    between atoms: C_5  and  C_6 
REMARK    5  A    between atoms: C_7  and  C_8 
REMARK    6  A    between atoms: C_8  and  C_9 
REMARK    7  A    between atoms: C_9  and  O_11 
REMARK    8  A    between atoms: C_28  and  C_29 
REMARK    9  A    between atoms: C_29  and  C_30 
REMARK   10  A    between atoms: C_30  and  O_32 
REMARK   11  A    between atoms: C_33  and  C_34 
REMARK   12  A    between atoms: C_34  and  C_35 
REMARK   13  A    between atoms: C_35  and  C_36 
REMARK   14  A    between atoms: C_36  and  O_38 
REMARK   15  A    between atoms: C_39  and  C_40 
REMARK   16  A    between atoms: C_40  and  C_41 
REMARK   17  A    between atoms: C_41  and  C_42 
REMARK   18  A    between atoms: C_42  and  O_44 
REMARK   19  A    between atoms: C_45  and  C_46 
REMARK   20  A    between atoms: C_46  and  C_47 
REMARK   21  A    between atoms: C_47  and  O_49 
REMARK   22  A    between atoms: C_50  and  C_51 
REMARK   23  A    between atoms: C_51  and  C_52 
REMARK   24  A    between atoms: C_52  and  O_54 
REMARK   25  A    between atoms: C_55  and  C_56 
REMARK   26  A    between atoms: C_56  and  C_57 
REMARK   27  A    between atoms: C_57  and  C_58 
REMARK   28  A    between atoms: C_58  and  O_60 
ROOT
ATOM      1  O   UNK d   0      36.078   3.021  48.618  0.00  0.00    -0.650 OA
ATOM      2  C   UNK d   0      35.679   2.473  47.566  0.00  0.00     0.139 C 
ENDROOT
BRANCH   2   3
ATOM      3  O   UNK d   0      35.305   3.254  46.500  0.00  0.00    -0.776 OA
ATOM      4  H   UNK d   0      34.854   4.161  46.643  0.00  0.00     0.167 HD
ENDBRANCH   2   3
BRANCH   2   5
ATOM      5  C   UNK d   0      35.613   0.987  47.475  0.00  0.00     0.115 C 
BRANCH   5   6
ATOM      6  C   UNK d   0      34.354   0.568  46.765  0.00  0.00     0.052 C 
BRANCH   6   7
ATOM      7  C   UNK d   0      34.546  -0.675  45.928  0.00  0.00    -0.020 A 
ATOM      8  C   UNK d   0      35.196  -1.763  46.252  0.00  0.00    -0.011 A 
ATOM      9  C   UNK d   0      35.117  -2.680  45.128  0.00  0.00     0.067 A 
ATOM     10  C   UNK d   0      35.568  -3.979  44.847  0.00  0.00     0.062 C 
ATOM     11  N   UNK d   0      34.404  -2.067  44.160  0.00  0.00    -0.248 NA
ATOM     12  C   UNK d   0      35.154  -4.813  43.803  0.00  0.00     0.041 A 
ATOM     13  N   UNK d   0      34.917  -4.555  42.503  0.00  0.00    -0.355 N 
ATOM     14  C   UNK d   0      34.860  -6.160  44.083  0.00  0.00    -0.022 A 
ATOM     15  C   UNK d   0      34.472  -5.701  41.953  0.00  0.00     0.042 A 
ATOM     16  H   UNK d   0      35.079  -3.587  41.979  0.00  0.00     0.166 HD
ATOM     17  C   UNK d   0      34.082  -5.988  40.630  0.00  0.00     0.062 C 
ATOM     18  C   UNK d   0      34.423  -6.730  42.913  0.00  0.00    -0.013 A 
ATOM     19  C   UNK d   0      33.287  -5.254  39.787  0.00  0.00     0.067 A 
ATOM     20  N   UNK d   0      32.989  -4.009  40.168  0.00  0.00    -0.248 NA
ATOM     21  C   UNK d   0      32.626  -5.482  38.513  0.00  0.00    -0.011 A 
ATOM     22  C   UNK d   0      32.179  -3.407  39.236  0.00  0.00     0.066 A 
ATOM     23  C   UNK d   0      31.821  -2.091  39.489  0.00  0.00     0.062 C 
ATOM     24  C   UNK d   0      31.975  -4.399  38.198  0.00  0.00    -0.020 A 
ATOM     25  C   UNK d   0      32.259  -1.267  40.537  0.00  0.00     0.041 A 
ATOM     26  N   UNK d   0      32.480  -1.520  41.833  0.00  0.00    -0.355 N 
ATOM     27  C   UNK d   0      32.559   0.084  40.254  0.00  0.00    -0.022 A 
ATOM     28  C   UNK d   0      32.915  -0.376  42.385  0.00  0.00     0.042 A 
ATOM     29  H   UNK d   0      32.307  -2.490  42.359  0.00  0.00     0.166 HD
ATOM     30  C   UNK d   0      33.298  -0.074  43.701  0.00  0.00     0.062 C 
ATOM     31  C   UNK d   0      32.975   0.654  41.417  0.00  0.00    -0.013 A 
ATOM     32  C   UNK d   0      34.030  -0.857  44.580  0.00  0.00     0.066 A 
BRANCH   8  33
ATOM     33  C   UNK d   0      35.897  -2.030  47.522  0.00  0.00     0.151 C 
BRANCH  33  34
ATOM     34  C   UNK d   0      37.315  -2.382  47.328  0.00  0.00     0.143 C 
ATOM     35  O   UNK d   0      38.101  -1.587  46.793  0.00  0.00    -0.650 OA
BRANCH  34  36
ATOM     36  O   UNK d   0      37.769  -3.612  47.746  0.00  0.00    -0.776 OA
ATOM     37  H   UNK d   0      37.813  -4.413  47.101  0.00  0.00     0.167 HD
ENDBRANCH  34  36
ENDBRANCH  33  34
ENDBRANCH   8  33
BRANCH  31  38
ATOM     38  C   UNK d   0      33.417   2.088  41.599  0.00  0.00     0.151 C 
BRANCH  38  39
ATOM     39  C   UNK d   0      32.328   2.968  41.965  0.00  0.00     0.143 C 
ATOM     40  O   UNK d   0      31.504   3.390  41.134  0.00  0.00    -0.650 OA
BRANCH  39  41
ATOM     41  O   UNK d   0      32.185   3.366  43.294  0.00  0.00    -0.776 OA
ATOM     42  H   UNK d   0      32.415   4.341  43.511  0.00  0.00     0.167 HD
ENDBRANCH  39  41
ENDBRANCH  38  39
ENDBRANCH  31  38
BRANCH  27  43
ATOM     43  C   UNK d   0      32.463   0.833  38.948  0.00  0.00     0.052 C 
BRANCH  43  44
ATOM     44  C   UNK d   0      31.089   0.824  38.361  0.00  0.00     0.115 C 
BRANCH  44  45
ATOM     45  C   UNK d   0      31.152  -0.026  37.144  0.00  0.00     0.139 C 
ATOM     46  O   UNK d   0      32.274  -0.218  36.614  0.00  0.00    -0.650 OA
BRANCH  45  47
ATOM     47  O   UNK d   0      30.038  -0.611  36.582  0.00  0.00    -0.776 OA
ATOM     48  H   UNK d   0      29.393  -1.215  37.117  0.00  0.00     0.167 HD
ENDBRANCH  45  47
ENDBRANCH  44  45
ENDBRANCH  43  44
ENDBRANCH  27  43
BRANCH  24  49
ATOM     49  C   UNK d   0      31.197  -4.180  36.967  0.00  0.00     0.052 C 
BRANCH  49  50
ATOM     50  C   UNK d   0      29.825  -4.790  37.099  0.00  0.00     0.115 C 
BRANCH  50  51
ATOM     51  C   UNK d   0      29.432  -5.767  36.093  0.00  0.00     0.139 C 
ATOM     52  O   UNK d   0      28.698  -6.750  36.354  0.00  0.00    -0.650 OA
BRANCH  51  53
ATOM     53  O   UNK d   0      29.877  -5.624  34.788  0.00  0.00    -0.776 OA
ATOM     54  H   UNK d   0      30.510  -6.315  34.423  0.00  0.00     0.167 HD
ENDBRANCH  51  53
ENDBRANCH  50  51
ENDBRANCH  49  50
ENDBRANCH  24  49
BRANCH  21  55
ATOM     55  C   UNK d   0      32.716  -6.756  37.741  0.00  0.00     0.151 C 
BRANCH  55  56
ATOM     56  C   UNK d   0      33.905  -6.793  36.875  0.00  0.00     0.143 C 
ATOM     57  O   UNK d   0      34.897  -7.507  37.120  0.00  0.00    -0.650 OA
BRANCH  56  58
ATOM     58  O   UNK d   0      33.903  -5.989  35.736  0.00  0.00    -0.776 OA
ATOM     59  H   UNK d   0      32.971  -5.838  35.310  0.00  0.00     0.167 HD
ENDBRANCH  56  58
ENDBRANCH  55  56
ENDBRANCH  21  55
BRANCH  18  60
ATOM     60  C   UNK d   0      33.990  -8.167  42.761  0.00  0.00     0.151 C 
BRANCH  60  61
ATOM     61  C   UNK d   0      32.775  -8.312  43.577  0.00  0.00     0.143 C 
ATOM     62  O   UNK d   0      32.447  -9.289  44.251  0.00  0.00    -0.650 OA
BRANCH  61  63
ATOM     63  O   UNK d   0      31.907  -7.194  43.569  0.00  0.00    -0.776 OA
ATOM     64  H   UNK d   0      32.158  -6.340  44.036  0.00  0.00     0.167 HD
ENDBRANCH  61  63
ENDBRANCH  60  61
ENDBRANCH  18  60
BRANCH  14  65
ATOM     65  C   UNK d   0      35.052  -6.965  45.337  0.00  0.00     0.052 C 
BRANCH  65  66
ATOM     66  C   UNK d   0      34.399  -6.355  46.526  0.00  0.00     0.115 C 
BRANCH  66  67
ATOM     67  C   UNK d   0      33.302  -7.030  47.161  0.00  0.00     0.139 C 
ATOM     68  O   UNK d   0      33.272  -7.077  48.446  0.00  0.00    -0.650 OA
BRANCH  67  69
ATOM     69  O   UNK d   0      32.224  -7.668  46.550  0.00  0.00    -0.776 OA
ATOM     70  H   UNK d   0      32.452  -8.516  46.011  0.00  0.00     0.167 HD
ENDBRANCH  67  69
ENDBRANCH  66  67
ENDBRANCH  65  66
ENDBRANCH  14  65
ENDBRANCH   6   7
ENDBRANCH   5   6
ENDBRANCH   2   5
TORSDOF 28
ENDMDL
MODEL 14
REMARK VINA RESULT:      -8.3      1.838      7.419
REMARK  28 active torsions:
REMARK  status: ('A' for Active; 'I' for Inactive)
REMARK    1  A    between atoms: C_2  and  O_3 
REMARK    2  A    between atoms: C_2  and  C_4 
REMARK    3  A    between atoms: C_4  and  C_5 
REMARK    4  A    between atoms: C_5  and  C_6 
REMARK    5  A    between atoms: C_7  and  C_8 
REMARK    6  A    between atoms: C_8  and  C_9 
REMARK    7  A    between atoms: C_9  and  O_11 
REMARK    8  A    between atoms: C_28  and  C_29 
REMARK    9  A    between atoms: C_29  and  C_30 
REMARK   10  A    between atoms: C_30  and  O_32 
REMARK   11  A    between atoms: C_33  and  C_34 
REMARK   12  A    between atoms: C_34  and  C_35 
REMARK   13  A    between atoms: C_35  and  C_36 
REMARK   14  A    between atoms: C_36  and  O_38 
REMARK   15  A    between atoms: C_39  and  C_40 
REMARK   16  A    between atoms: C_40  and  C_41 
REMARK   17  A    between atoms: C_41  and  C_42 
REMARK   18  A    between atoms: C_42  and  O_44 
REMARK   19  A    between atoms: C_45  and  C_46 
REMARK   20  A    between atoms: C_46  and  C_47 
REMARK   21  A    between atoms: C_47  and  O_49 
REMARK   22  A    between atoms: C_50  and  C_51 
REMARK   23  A    between atoms: C_51  and  C_52 
REMARK   24  A    between atoms: C_52  and  O_54 
REMARK   25  A    between atoms: C_55  and  C_56 
REMARK   26  A    between atoms: C_56  and  C_57 
REMARK   27  A    between atoms: C_57  and  C_58 
REMARK   28  A    between atoms: C_58  and  O_60 
ROOT
ATOM      1  O   UNK d   0      31.980   5.548  43.681  0.00  0.00    -0.650 OA
ATOM      2  C   UNK d   0      31.744   4.605  42.893  0.00  0.00     0.139 C 
ENDROOT
BRANCH   2   3
ATOM      3  O   UNK d   0      31.978   4.775  41.550  0.00  0.00    -0.776 OA
ATOM      4  H   UNK d   0      31.205   4.836  40.883  0.00  0.00     0.167 HD
ENDBRANCH   2   3
BRANCH   2   5
ATOM      5  C   UNK d   0      31.212   3.312  43.411  0.00  0.00     0.115 C 
BRANCH   5   6
ATOM      6  C   UNK d   0      31.897   2.951  44.702  0.00  0.00     0.052 C 
BRANCH   6   7
ATOM      7  C   UNK d   0      32.671   1.658  44.607  0.00  0.00    -0.020 A 
ATOM      8  C   UNK d   0      33.522   1.172  45.473  0.00  0.00    -0.011 A 
ATOM      9  C   UNK d   0      34.021  -0.088  44.949  0.00  0.00     0.067 A 
ATOM     10  C   UNK d   0      34.910  -1.085  45.382  0.00  0.00     0.062 C 
ATOM     11  N   UNK d   0      33.424  -0.289  43.755  0.00  0.00    -0.248 NA
ATOM     12  C   UNK d   0      35.055  -2.375  44.861  0.00  0.00     0.041 A 
ATOM     13  N   UNK d   0      35.088  -2.819  43.590  0.00  0.00    -0.355 N 
ATOM     14  C   UNK d   0      35.132  -3.463  45.750  0.00  0.00    -0.022 A 
ATOM     15  C   UNK d   0      35.177  -4.162  43.650  0.00  0.00     0.042 A 
ATOM     16  H   UNK d   0      35.070  -2.195  42.670  0.00  0.00     0.166 HD
ATOM     17  C   UNK d   0      35.246  -5.119  42.618  0.00  0.00     0.062 C 
ATOM     18  C   UNK d   0      35.206  -4.602  44.987  0.00  0.00    -0.013 A 
ATOM     19  C   UNK d   0      34.505  -5.201  41.467  0.00  0.00     0.067 A 
ATOM     20  N   UNK d   0      33.748  -4.145  41.158  0.00  0.00    -0.248 NA
ATOM     21  C   UNK d   0      34.294  -6.196  40.429  0.00  0.00    -0.011 A 
ATOM     22  C   UNK d   0      33.056  -4.378  39.995  0.00  0.00     0.066 A 
ATOM     23  C   UNK d   0      32.256  -3.342  39.536  0.00  0.00     0.062 C 
ATOM     24  C   UNK d   0      33.442  -5.710  39.573  0.00  0.00    -0.020 A 
ATOM     25  C   UNK d   0      32.134  -2.049  40.067  0.00  0.00     0.041 A 
ATOM     26  N   UNK d   0      32.085  -1.608  41.330  0.00  0.00    -0.355 N 
ATOM     27  C   UNK d   0      32.061  -0.957  39.174  0.00  0.00    -0.022 A 
ATOM     28  C   UNK d   0      31.988  -0.271  41.273  0.00  0.00     0.042 A 
ATOM     29  H   UNK d   0      32.093  -2.237  42.254  0.00  0.00     0.166 HD
ATOM     30  C   UNK d   0      31.909   0.693  42.291  0.00  0.00     0.062 C 
ATOM     31  C   UNK d   0      31.969   0.172  39.929  0.00  0.00    -0.013 A 
ATOM     32  C   UNK d   0      32.599   0.726  43.492  0.00  0.00     0.066 A 
BRANCH   8  33
ATOM     33  C   UNK d   0      33.924   1.780  46.756  0.00  0.00     0.151 C 
BRANCH  33  34
ATOM     34  C   UNK d   0      35.206   2.502  46.668  0.00  0.00     0.143 C 
ATOM     35  O   UNK d   0      36.184   2.147  47.342  0.00  0.00    -0.650 OA
BRANCH  34  36
ATOM     36  O   UNK d   0      35.315   3.586  45.828  0.00  0.00    -0.776 OA
ATOM     37  H   UNK d   0      34.787   4.452  46.002  0.00  0.00     0.167 HD
ENDBRANCH  34  36
ENDBRANCH  33  34
ENDBRANCH   8  33
BRANCH  31  38
ATOM     38  C   UNK d   0      31.882   1.588  39.408  0.00  0.00     0.151 C 
BRANCH  38  39
ATOM     39  C   UNK d   0      33.178   2.216  39.271  0.00  0.00     0.143 C 
ATOM     40  O   UNK d   0      34.237   1.564  39.267  0.00  0.00    -0.650 OA
BRANCH  39  41
ATOM     41  O   UNK d   0      33.258   3.602  39.136  0.00  0.00    -0.776 OA
ATOM     42  H   UNK d   0      33.572   3.960  38.229  0.00  0.00     0.167 HD
ENDBRANCH  39  41
ENDBRANCH  38  39
ENDBRANCH  31  38
BRANCH  27  43
ATOM     43  C   UNK d   0      32.073  -0.950  37.666  0.00  0.00     0.052 C 
BRANCH  43  44
ATOM     44  C   UNK d   0      30.833  -0.368  37.068  0.00  0.00     0.115 C 
BRANCH  44  45
ATOM     45  C   UNK d   0      30.071  -1.502  36.484  0.00  0.00     0.139 C 
ATOM     46  O   UNK d   0      29.720  -2.435  37.248  0.00  0.00    -0.650 OA
BRANCH  45  47
ATOM     47  O   UNK d   0      29.732  -1.566  35.150  0.00  0.00    -0.776 OA
ATOM     48  H   UNK d   0      29.520  -2.455  34.668  0.00  0.00     0.167 HD
ENDBRANCH  45  47
ENDBRANCH  44  45
ENDBRANCH  43  44
ENDBRANCH  27  43
BRANCH  24  49
ATOM     49  C   UNK d   0      32.974  -6.371  38.342  0.00  0.00     0.052 C 
BRANCH  49  50
ATOM     50  C   UNK d   0      32.357  -5.362  37.407  0.00  0.00     0.115 C 
BRANCH  50  51
ATOM     51  C   UNK d   0      31.955  -5.836  36.090  0.00  0.00     0.139 C 
ATOM     52  O   UNK d   0      32.578  -6.733  35.474  0.00  0.00    -0.650 OA
BRANCH  51  53
ATOM     53  O   UNK d   0      30.842  -5.285  35.473  0.00  0.00    -0.776 OA
ATOM     54  H   UNK d   0      30.883  -4.321  35.192  0.00  0.00     0.167 HD
ENDBRANCH  51  53
ENDBRANCH  50  51
ENDBRANCH  49  50
ENDBRANCH  24  49
BRANCH  21  55
ATOM     55  C   UNK d   0      34.969  -7.527  40.398  0.00  0.00     0.151 C 
BRANCH  55  56
ATOM     56  C   UNK d   0      36.238  -7.485  39.655  0.00  0.00     0.143 C 
ATOM     57  O   UNK d   0      36.306  -7.677  38.425  0.00  0.00    -0.650 OA
BRANCH  56  58
ATOM     58  O   UNK d   0      37.402  -7.218  40.373  0.00  0.00    -0.776 OA
ATOM     59  H   UNK d   0      37.254  -6.973  41.368  0.00  0.00     0.167 HD
ENDBRANCH  56  58
ENDBRANCH  55  56
ENDBRANCH  21  55
BRANCH  18  60
ATOM     60  C   UNK d   0      35.296  -6.005  45.535  0.00  0.00     0.151 C 
BRANCH  60  61
ATOM     61  C   UNK d   0      33.908  -6.459  45.709  0.00  0.00     0.143 C 
ATOM     62  O   UNK d   0      33.168  -6.234  46.668  0.00  0.00    -0.650 OA
BRANCH  61  63
ATOM     63  O   UNK d   0      33.391  -7.237  44.646  0.00  0.00    -0.776 OA
ATOM     64  H   UNK d   0      33.988  -7.571  43.910  0.00  0.00     0.167 HD
ENDBRANCH  61  63
ENDBRANCH  60  61
ENDBRANCH  18  60
BRANCH  14  65
ATOM     65  C   UNK d   0      35.239  -3.500  47.248  0.00  0.00     0.052 C 
BRANCH  65  66
ATOM     66  C   UNK d   0      36.625  -3.273  47.738  0.00  0.00     0.115 C 
BRANCH  66  67
ATOM     67  C   UNK d   0      37.154  -1.939  47.786  0.00  0.00     0.139 C 
ATOM     68  O   UNK d   0      38.248  -1.690  47.157  0.00  0.00    -0.650 OA
BRANCH  67  69
ATOM     69  O   UNK d   0      36.621  -0.834  48.448  0.00  0.00    -0.776 OA
ATOM     70  H   UNK d   0      36.356  -0.038  47.849  0.00  0.00     0.167 HD
ENDBRANCH  67  69
ENDBRANCH  66  67
ENDBRANCH  65  66
ENDBRANCH  14  65
ENDBRANCH   6   7
ENDBRANCH   5   6
ENDBRANCH   2   5
TORSDOF 28
ENDMDL
MODEL 15
REMARK VINA RESULT:      -8.2      1.902      8.105
REMARK  28 active torsions:
REMARK  status: ('A' for Active; 'I' for Inactive)
REMARK    1  A    between atoms: C_2  and  O_3 
REMARK    2  A    between atoms: C_2  and  C_4 
REMARK    3  A    between atoms: C_4  and  C_5 
REMARK    4  A    between atoms: C_5  and  C_6 
REMARK    5  A    between atoms: C_7  and  C_8 
REMARK    6  A    between atoms: C_8  and  C_9 
REMARK    7  A    between atoms: C_9  and  O_11 
REMARK    8  A    between atoms: C_28  and  C_29 
REMARK    9  A    between atoms: C_29  and  C_30 
REMARK   10  A    between atoms: C_30  and  O_32 
REMARK   11  A    between atoms: C_33  and  C_34 
REMARK   12  A    between atoms: C_34  and  C_35 
REMARK   13  A    between atoms: C_35  and  C_36 
REMARK   14  A    between atoms: C_36  and  O_38 
REMARK   15  A    between atoms: C_39  and  C_40 
REMARK   16  A    between atoms: C_40  and  C_41 
REMARK   17  A    between atoms: C_41  and  C_42 
REMARK   18  A    between atoms: C_42  and  O_44 
REMARK   19  A    between atoms: C_45  and  C_46 
REMARK   20  A    between atoms: C_46  and  C_47 
REMARK   21  A    between atoms: C_47  and  O_49 
REMARK   22  A    between atoms: C_50  and  C_51 
REMARK   23  A    between atoms: C_51  and  C_52 
REMARK   24  A    between atoms: C_52  and  O_54 
REMARK   25  A    between atoms: C_55  and  C_56 
REMARK   26  A    between atoms: C_56  and  C_57 
REMARK   27  A    between atoms: C_57  and  C_58 
REMARK   28  A    between atoms: C_58  and  O_60 
ROOT
ATOM      1  O   UNK d   0      32.395  -6.836  34.865  0.00  0.00    -0.650 OA
ATOM      2  C   UNK d   0      31.819  -6.488  35.920  0.00  0.00     0.139 C 
ENDROOT
BRANCH   2   3
ATOM      3  O   UNK d   0      30.699  -7.170  36.332  0.00  0.00    -0.776 OA
ATOM      4  H   UNK d   0      30.746  -7.847  37.096  0.00  0.00     0.167 HD
ENDBRANCH   2   3
BRANCH   2   5
ATOM      5  C   UNK d   0      32.344  -5.343  36.717  0.00  0.00     0.115 C 
BRANCH   5   6
ATOM      6  C   UNK d   0      31.229  -4.699  37.495  0.00  0.00     0.052 C 
BRANCH   6   7
ATOM      7  C   UNK d   0      31.732  -3.730  38.538  0.00  0.00    -0.020 A 
ATOM      8  C   UNK d   0      31.695  -2.423  38.496  0.00  0.00    -0.011 A 
ATOM      9  C   UNK d   0      32.303  -1.921  39.718  0.00  0.00     0.067 A 
ATOM     10  C   UNK d   0      32.548  -0.660  40.283  0.00  0.00     0.062 C 
ATOM     11  N   UNK d   0      32.687  -2.993  40.443  0.00  0.00    -0.248 NA
ATOM     12  C   UNK d   0      32.898  -0.379  41.608  0.00  0.00     0.041 A 
ATOM     13  N   UNK d   0      33.765  -0.983  42.443  0.00  0.00    -0.355 N 
ATOM     14  C   UNK d   0      32.239   0.667  42.279  0.00  0.00    -0.022 A 
ATOM     15  C   UNK d   0      33.668  -0.352  43.628  0.00  0.00     0.042 A 
ATOM     16  H   UNK d   0      34.447  -1.826  42.194  0.00  0.00     0.166 HD
ATOM     17  C   UNK d   0      34.348  -0.578  44.842  0.00  0.00     0.062 C 
ATOM     18  C   UNK d   0      32.721   0.688  43.564  0.00  0.00    -0.013 A 
ATOM     19  C   UNK d   0      34.611  -1.765  45.475  0.00  0.00     0.067 A 
ATOM     20  N   UNK d   0      34.379  -2.884  44.783  0.00  0.00    -0.248 NA
ATOM     21  C   UNK d   0      35.093  -2.165  46.787  0.00  0.00    -0.011 A 
ATOM     22  C   UNK d   0      34.672  -3.986  45.548  0.00  0.00     0.066 A 
ATOM     23  C   UNK d   0      34.511  -5.221  44.936  0.00  0.00     0.062 C 
ATOM     24  C   UNK d   0      35.122  -3.466  46.824  0.00  0.00    -0.020 A 
ATOM     25  C   UNK d   0      34.171  -5.481  43.600  0.00  0.00     0.041 A 
ATOM     26  N   UNK d   0      33.298  -4.891  42.775  0.00  0.00    -0.355 N 
ATOM     27  C   UNK d   0      34.836  -6.529  42.926  0.00  0.00    -0.022 A 
ATOM     28  C   UNK d   0      33.387  -5.524  41.595  0.00  0.00     0.042 A 
ATOM     29  H   UNK d   0      32.607  -4.051  43.030  0.00  0.00     0.166 HD
ATOM     30  C   UNK d   0      32.710  -5.316  40.383  0.00  0.00     0.062 C 
ATOM     31  C   UNK d   0      34.347  -6.562  41.657  0.00  0.00    -0.013 A 
ATOM     32  C   UNK d   0      32.372  -4.111  39.788  0.00  0.00     0.066 A 
BRANCH   8  33
ATOM     33  C   UNK d   0      31.145  -1.587  37.413  0.00  0.00     0.151 C 
BRANCH  33  34
ATOM     34  C   UNK d   0      31.516  -0.166  37.544  0.00  0.00     0.143 C 
ATOM     35  O   UNK d   0      30.723   0.658  38.019  0.00  0.00    -0.650 OA
BRANCH  34  36
ATOM     36  O   UNK d   0      32.762   0.247  37.130  0.00  0.00    -0.776 OA
ATOM     37  H   UNK d   0      33.590  -0.351  37.250  0.00  0.00     0.167 HD
ENDBRANCH  34  36
ENDBRANCH  33  34
ENDBRANCH   8  33
BRANCH  31  38
ATOM     38  C   UNK d   0      34.772  -7.513  40.562  0.00  0.00     0.151 C 
BRANCH  38  39
ATOM     39  C   UNK d   0      35.895  -7.019  39.794  0.00  0.00     0.143 C 
ATOM     40  O   UNK d   0      35.799  -6.724  38.589  0.00  0.00    -0.650 OA
BRANCH  39  41
ATOM     41  O   UNK d   0      37.134  -6.861  40.413  0.00  0.00    -0.776 OA
ATOM     42  H   UNK d   0      37.326  -5.947  40.836  0.00  0.00     0.167 HD
ENDBRANCH  39  41
ENDBRANCH  38  39
ENDBRANCH  31  38
BRANCH  27  43
ATOM     43  C   UNK d   0      35.893  -7.477  43.435  0.00  0.00     0.052 C 
BRANCH  43  44
ATOM     44  C   UNK d   0      35.329  -8.656  44.161  0.00  0.00     0.115 C 
BRANCH  44  45
ATOM     45  C   UNK d   0      35.567  -8.417  45.608  0.00  0.00     0.139 C 
ATOM     46  O   UNK d   0      34.699  -8.813  46.424  0.00  0.00    -0.650 OA
BRANCH  45  47
ATOM     47  O   UNK d   0      36.696  -7.788  46.085  0.00  0.00    -0.776 OA
ATOM     48  H   UNK d   0      36.686  -6.824  46.458  0.00  0.00     0.167 HD
ENDBRANCH  45  47
ENDBRANCH  44  45
ENDBRANCH  43  44
ENDBRANCH  27  43
BRANCH  24  49
ATOM     49  C   UNK d   0      35.584  -4.292  47.953  0.00  0.00     0.052 C 
BRANCH  49  50
ATOM     50  C   UNK d   0      37.042  -4.636  47.790  0.00  0.00     0.115 C 
BRANCH  50  51
ATOM     51  C   UNK d   0      38.008  -3.766  48.447  0.00  0.00     0.139 C 
ATOM     52  O   UNK d   0      37.823  -3.295  49.595  0.00  0.00    -0.650 OA
BRANCH  51  53
ATOM     53  O   UNK d   0      39.184  -3.430  47.795  0.00  0.00    -0.776 OA
ATOM     54  H   UNK d   0      39.816  -2.796  48.252  0.00  0.00     0.167 HD
ENDBRANCH  51  53
ENDBRANCH  50  51
ENDBRANCH  49  50
ENDBRANCH  24  49
BRANCH  21  55
ATOM     55  C   UNK d   0      35.477  -1.206  47.864  0.00  0.00     0.151 C 
BRANCH  55  56
ATOM     56  C   UNK d   0      36.729  -0.500  47.552  0.00  0.00     0.143 C 
ATOM     57  O   UNK d   0      37.717  -1.069  47.046  0.00  0.00    -0.650 OA
BRANCH  56  58
ATOM     58  O   UNK d   0      36.796   0.862  47.840  0.00  0.00    -0.776 OA
ATOM     59  H   UNK d   0      37.506   1.388  47.301  0.00  0.00     0.167 HD
ENDBRANCH  56  58
ENDBRANCH  55  56
ENDBRANCH  21  55
BRANCH  18  60
ATOM     60  C   UNK d   0      32.279   1.653  44.637  0.00  0.00     0.151 C 
BRANCH  60  61
ATOM     61  C   UNK d   0      30.980   1.156  45.116  0.00  0.00     0.143 C 
ATOM     62  O   UNK d   0      30.609  -0.016  45.174  0.00  0.00    -0.650 OA
BRANCH  61  63
ATOM     63  O   UNK d   0      30.077   2.156  45.553  0.00  0.00    -0.776 OA
ATOM     64  H   UNK d   0      29.745   2.176  46.501  0.00  0.00     0.167 HD
ENDBRANCH  61  63
ENDBRANCH  60  61
ENDBRANCH  18  60
BRANCH  14  65
ATOM     65  C   UNK d   0      31.272   1.700  41.775  0.00  0.00     0.052 C 
BRANCH  65  66
ATOM     66  C   UNK d   0      31.933   2.972  41.379  0.00  0.00     0.115 C 
BRANCH  66  67
ATOM     67  C   UNK d   0      31.302   3.834  40.420  0.00  0.00     0.139 C 
ATOM     68  O   UNK d   0      31.365   5.106  40.602  0.00  0.00    -0.650 OA
BRANCH  67  69
ATOM     69  O   UNK d   0      30.600   3.465  39.272  0.00  0.00    -0.776 OA
ATOM     70  H   UNK d   0      30.203   4.240  38.722  0.00  0.00     0.167 HD
ENDBRANCH  67  69
ENDBRANCH  66  67
ENDBRANCH  65  66
ENDBRANCH  14  65
ENDBRANCH   6   7
ENDBRANCH   5   6
ENDBRANCH   2   5
TORSDOF 28
ENDMDL
MODEL 16
REMARK VINA RESULT:      -8.1      1.776      7.804
REMARK  28 active torsions:
REMARK  status: ('A' for Active; 'I' for Inactive)
REMARK    1  A    between atoms: C_2  and  O_3 
REMARK    2  A    between atoms: C_2  and  C_4 
REMARK    3  A    between atoms: C_4  and  C_5 
REMARK    4  A    between atoms: C_5  and  C_6 
REMARK    5  A    between atoms: C_7  and  C_8 
REMARK    6  A    between atoms: C_8  and  C_9 
REMARK    7  A    between atoms: C_9  and  O_11 
REMARK    8  A    between atoms: C_28  and  C_29 
REMARK    9  A    between atoms: C_29  and  C_30 
REMARK   10  A    between atoms: C_30  and  O_32 
REMARK   11  A    between atoms: C_33  and  C_34 
REMARK   12  A    between atoms: C_34  and  C_35 
REMARK   13  A    between atoms: C_35  and  C_36 
REMARK   14  A    between atoms: C_36  and  O_38 
REMARK   15  A    between atoms: C_39  and  C_40 
REMARK   16  A    between atoms: C_40  and  C_41 
REMARK   17  A    between atoms: C_41  and  C_42 
REMARK   18  A    between atoms: C_42  and  O_44 
REMARK   19  A    between atoms: C_45  and  C_46 
REMARK   20  A    between atoms: C_46  and  C_47 
REMARK   21  A    between atoms: C_47  and  O_49 
REMARK   22  A    between atoms: C_50  and  C_51 
REMARK   23  A    between atoms: C_51  and  C_52 
REMARK   24  A    between atoms: C_52  and  O_54 
REMARK   25  A    between atoms: C_55  and  C_56 
REMARK   26  A    between atoms: C_56  and  C_57 
REMARK   27  A    between atoms: C_57  and  C_58 
REMARK   28  A    between atoms: C_58  and  O_60 
ROOT
ATOM      1  O   UNK d   0      35.380   1.823  47.262  0.00  0.00    -0.650 OA
ATOM      2  C   UNK d   0      34.563   1.730  46.319  0.00  0.00     0.139 C 
ENDROOT
BRANCH   2   3
ATOM      3  O   UNK d   0      34.458   2.761  45.416  0.00  0.00    -0.776 OA
ATOM      4  H   UNK d   0      33.754   2.743  44.675  0.00  0.00     0.167 HD
ENDBRANCH   2   3
BRANCH   2   5
ATOM      5  C   UNK d   0      33.714   0.513  46.181  0.00  0.00     0.115 C 
BRANCH   5   6
ATOM      6  C   UNK d   0      34.413  -0.676  46.780  0.00  0.00     0.052 C 
BRANCH   6   7
ATOM      7  C   UNK d   0      34.599  -1.801  45.789  0.00  0.00    -0.020 A 
ATOM      8  C   UNK d   0      35.296  -2.897  45.947  0.00  0.00    -0.011 A 
ATOM      9  C   UNK d   0      35.187  -3.674  44.724  0.00  0.00     0.067 A 
ATOM     10  C   UNK d   0      35.662  -4.912  44.265  0.00  0.00     0.062 C 
ATOM     11  N   UNK d   0      34.409  -2.973  43.872  0.00  0.00    -0.248 NA
ATOM     12  C   UNK d   0      35.220  -5.628  43.147  0.00  0.00     0.041 A 
ATOM     13  N   UNK d   0      34.911  -5.223  41.901  0.00  0.00    -0.355 N 
ATOM     14  C   UNK d   0      34.980  -7.008  43.274  0.00  0.00    -0.022 A 
ATOM     15  C   UNK d   0      34.473  -6.309  41.236  0.00  0.00     0.042 A 
ATOM     16  H   UNK d   0      35.018  -4.194  41.493  0.00  0.00     0.166 HD
ATOM     17  C   UNK d   0      34.025  -6.447  39.907  0.00  0.00     0.062 C 
ATOM     18  C   UNK d   0      34.501  -7.447  42.065  0.00  0.00    -0.013 A 
ATOM     19  C   UNK d   0      33.168  -5.645  39.198  0.00  0.00     0.067 A 
ATOM     20  N   UNK d   0      32.852  -4.467  39.742  0.00  0.00    -0.248 NA
ATOM     21  C   UNK d   0      32.450  -5.741  37.938  0.00  0.00    -0.011 A 
ATOM     22  C   UNK d   0      31.979  -3.786  38.930  0.00  0.00     0.066 A 
ATOM     23  C   UNK d   0      31.596  -2.523  39.359  0.00  0.00     0.062 C 
ATOM     24  C   UNK d   0      31.753  -4.651  37.789  0.00  0.00    -0.020 A 
ATOM     25  C   UNK d   0      32.062  -1.817  40.478  0.00  0.00     0.041 A 
ATOM     26  N   UNK d   0      32.355  -2.217  41.721  0.00  0.00    -0.355 N 
ATOM     27  C   UNK d   0      32.307  -0.432  40.349  0.00  0.00    -0.022 A 
ATOM     28  C   UNK d   0      32.784  -1.134  42.389  0.00  0.00     0.042 A 
ATOM     29  H   UNK d   0      32.237  -3.249  42.132  0.00  0.00     0.166 HD
ATOM     30  C   UNK d   0      33.224  -0.980  43.713  0.00  0.00     0.062 C 
ATOM     31  C   UNK d   0      32.765   0.008  41.553  0.00  0.00    -0.013 A 
ATOM     32  C   UNK d   0      34.022  -1.837  44.454  0.00  0.00     0.066 A 
BRANCH   8  33
ATOM     33  C   UNK d   0      36.068  -3.291  47.141  0.00  0.00     0.151 C 
BRANCH  33  34
ATOM     34  C   UNK d   0      35.761  -4.660  47.592  0.00  0.00     0.143 C 
ATOM     35  O   UNK d   0      34.625  -4.960  47.987  0.00  0.00    -0.650 OA
BRANCH  34  36
ATOM     36  O   UNK d   0      36.751  -5.615  47.575  0.00  0.00    -0.776 OA
ATOM     37  H   UNK d   0      37.704  -5.391  47.257  0.00  0.00     0.167 HD
ENDBRANCH  34  36
ENDBRANCH  33  34
ENDBRANCH   8  33
BRANCH  31  38
ATOM     38  C   UNK d   0      33.173   1.423  41.888  0.00  0.00     0.151 C 
BRANCH  38  39
ATOM     39  C   UNK d   0      32.122   2.169  42.548  0.00  0.00     0.143 C 
ATOM     40  O   UNK d   0      32.089   2.321  43.782  0.00  0.00    -0.650 OA
BRANCH  39  41
ATOM     41  O   UNK d   0      31.106   2.743  41.785  0.00  0.00    -0.776 OA
ATOM     42  H   UNK d   0      30.311   2.142  41.547  0.00  0.00     0.167 HD
ENDBRANCH  39  41
ENDBRANCH  38  39
ENDBRANCH  31  38
BRANCH  27  43
ATOM     43  C   UNK d   0      32.124   0.465  39.151  0.00  0.00     0.052 C 
BRANCH  43  44
ATOM     44  C   UNK d   0      33.244   1.436  38.963  0.00  0.00     0.115 C 
BRANCH  44  45
ATOM     45  C   UNK d   0      32.630   2.788  38.911  0.00  0.00     0.139 C 
ATOM     46  O   UNK d   0      31.378   2.868  38.849  0.00  0.00    -0.650 OA
BRANCH  45  47
ATOM     47  O   UNK d   0      33.373   3.949  38.935  0.00  0.00    -0.776 OA
ATOM     48  H   UNK d   0      32.945   4.889  38.939  0.00  0.00     0.167 HD
ENDBRANCH  45  47
ENDBRANCH  44  45
ENDBRANCH  43  44
ENDBRANCH  27  43
BRANCH  24  49
ATOM     49  C   UNK d   0      30.907  -4.313  36.632  0.00  0.00     0.052 C 
BRANCH  49  50
ATOM     50  C   UNK d   0      29.471  -4.151  37.061  0.00  0.00     0.115 C 
BRANCH  50  51
ATOM     51  C   UNK d   0      28.451  -4.745  36.207  0.00  0.00     0.139 C 
ATOM     52  O   UNK d   0      28.720  -5.288  35.110  0.00  0.00    -0.650 OA
BRANCH  51  53
ATOM     53  O   UNK d   0      27.123  -4.718  36.604  0.00  0.00    -0.776 OA
ATOM     54  H   UNK d   0      26.775  -3.884  37.044  0.00  0.00     0.167 HD
ENDBRANCH  51  53
ENDBRANCH  50  51
ENDBRANCH  49  50
ENDBRANCH  24  49
BRANCH  21  55
ATOM     55  C   UNK d   0      32.538  -6.908  37.012  0.00  0.00     0.151 C 
BRANCH  55  56
ATOM     56  C   UNK d   0      31.219  -7.303  36.495  0.00  0.00     0.143 C 
ATOM     57  O   UNK d   0      30.284  -7.664  37.236  0.00  0.00    -0.650 OA
BRANCH  56  58
ATOM     58  O   UNK d   0      31.026  -7.266  35.115  0.00  0.00    -0.776 OA
ATOM     59  H   UNK d   0      30.336  -6.566  34.790  0.00  0.00     0.167 HD
ENDBRANCH  56  58
ENDBRANCH  55  56
ENDBRANCH  21  55
BRANCH  18  60
ATOM     60  C   UNK d   0      34.104  -8.870  41.757  0.00  0.00     0.151 C 
BRANCH  60  61
ATOM     61  C   UNK d   0      33.084  -9.229  42.754  0.00  0.00     0.143 C 
ATOM     62  O   UNK d   0      32.135  -8.539  43.127  0.00  0.00    -0.650 OA
BRANCH  61  63
ATOM     63  O   UNK d   0      33.233 -10.513  43.332  0.00  0.00    -0.776 OA
ATOM     64  H   UNK d   0      33.964 -10.701  43.995  0.00  0.00     0.167 HD
ENDBRANCH  61  63
ENDBRANCH  60  61
ENDBRANCH  18  60
BRANCH  14  65
ATOM     65  C   UNK d   0      35.258  -7.952  44.409  0.00  0.00     0.052 C 
BRANCH  65  66
ATOM     66  C   UNK d   0      34.419  -7.684  45.608  0.00  0.00     0.115 C 
BRANCH  66  67
ATOM     67  C   UNK d   0      34.622  -8.451  46.805  0.00  0.00     0.139 C 
ATOM     68  O   UNK d   0      34.151  -9.646  46.855  0.00  0.00    -0.650 OA
BRANCH  67  69
ATOM     69  O   UNK d   0      35.286  -8.059  47.967  0.00  0.00    -0.776 OA
ATOM     70  H   UNK d   0      35.011  -7.145  48.353  0.00  0.00     0.167 HD
ENDBRANCH  67  69
ENDBRANCH  66  67
ENDBRANCH  65  66
ENDBRANCH  14  65
ENDBRANCH   6   7
ENDBRANCH   5   6
ENDBRANCH   2   5
TORSDOF 28
ENDMDL
MODEL 17
REMARK VINA RESULT:      -8.0     28.377     32.635
REMARK  28 active torsions:
REMARK  status: ('A' for Active; 'I' for Inactive)
REMARK    1  A    between atoms: C_2  and  O_3 
REMARK    2  A    between atoms: C_2  and  C_4 
REMARK    3  A    between atoms: C_4  and  C_5 
REMARK    4  A    between atoms: C_5  and  C_6 
REMARK    5  A    between atoms: C_7  and  C_8 
REMARK    6  A    between atoms: C_8  and  C_9 
REMARK    7  A    between atoms: C_9  and  O_11 
REMARK    8  A    between atoms: C_28  and  C_29 
REMARK    9  A    between atoms: C_29  and  C_30 
REMARK   10  A    between atoms: C_30  and  O_32 
REMARK   11  A    between atoms: C_33  and  C_34 
REMARK   12  A    between atoms: C_34  and  C_35 
REMARK   13  A    between atoms: C_35  and  C_36 
REMARK   14  A    between atoms: C_36  and  O_38 
REMARK   15  A    between atoms: C_39  and  C_40 
REMARK   16  A    between atoms: C_40  and  C_41 
REMARK   17  A    between atoms: C_41  and  C_42 
REMARK   18  A    between atoms: C_42  and  O_44 
REMARK   19  A    between atoms: C_45  and  C_46 
REMARK   20  A    between atoms: C_46  and  C_47 
REMARK   21  A    between atoms: C_47  and  O_49 
REMARK   22  A    between atoms: C_50  and  C_51 
REMARK   23  A    between atoms: C_51  and  C_52 
REMARK   24  A    between atoms: C_52  and  O_54 
REMARK   25  A    between atoms: C_55  and  C_56 
REMARK   26  A    between atoms: C_56  and  C_57 
REMARK   27  A    between atoms: C_57  and  C_58 
REMARK   28  A    between atoms: C_58  and  O_60 
ROOT
ATOM      1  O   UNK d   0       0.421   0.889  41.129  0.00  0.00    -0.650 OA
ATOM      2  C   UNK d   0       0.210   0.034  40.240  0.00  0.00     0.139 C 
ENDROOT
BRANCH   2   3
ATOM      3  O   UNK d   0      -1.071  -0.415  40.029  0.00  0.00    -0.776 OA
ATOM      4  H   UNK d   0      -1.357  -0.787  39.121  0.00  0.00     0.167 HD
ENDBRANCH   2   3
BRANCH   2   5
ATOM      5  C   UNK d   0       1.340  -0.490  39.422  0.00  0.00     0.115 C 
BRANCH   5   6
ATOM      6  C   UNK d   0       0.926  -0.603  37.980  0.00  0.00     0.052 C 
BRANCH   6   7
ATOM      7  C   UNK d   0       1.902   0.065  37.041  0.00  0.00    -0.020 A 
ATOM      8  C   UNK d   0       2.937  -0.474  36.449  0.00  0.00    -0.011 A 
ATOM      9  C   UNK d   0       3.579   0.556  35.650  0.00  0.00     0.067 A 
ATOM     10  C   UNK d   0       4.684   0.627  34.788  0.00  0.00     0.062 C 
ATOM     11  N   UNK d   0       2.872   1.693  35.819  0.00  0.00    -0.248 NA
ATOM     12  C   UNK d   0       4.989   1.649  33.883  0.00  0.00     0.041 A 
ATOM     13  N   UNK d   0       4.930   2.989  34.006  0.00  0.00    -0.355 N 
ATOM     14  C   UNK d   0       5.382   1.307  32.576  0.00  0.00    -0.022 A 
ATOM     15  C   UNK d   0       5.267   3.505  32.809  0.00  0.00     0.042 A 
ATOM     16  H   UNK d   0       4.673   3.558  34.926  0.00  0.00     0.166 HD
ATOM     17  C   UNK d   0       5.368   4.846  32.389  0.00  0.00     0.062 C 
ATOM     18  C   UNK d   0       5.558   2.481  31.887  0.00  0.00    -0.013 A 
ATOM     19  C   UNK d   0       4.504   5.888  32.614  0.00  0.00     0.067 A 
ATOM     20  N   UNK d   0       3.533   5.685  33.509  0.00  0.00    -0.248 NA
ATOM     21  C   UNK d   0       4.338   7.237  32.101  0.00  0.00    -0.011 A 
ATOM     22  C   UNK d   0       2.744   6.804  33.616  0.00  0.00     0.066 A 
ATOM     23  C   UNK d   0       1.714   6.744  34.544  0.00  0.00     0.062 C 
ATOM     24  C   UNK d   0       3.304   7.766  32.688  0.00  0.00    -0.020 A 
ATOM     25  C   UNK d   0       1.433   5.713  35.452  0.00  0.00     0.041 A 
ATOM     26  N   UNK d   0       1.477   4.381  35.325  0.00  0.00    -0.355 N 
ATOM     27  C   UNK d   0       1.042   6.057  36.765  0.00  0.00    -0.022 A 
ATOM     28  C   UNK d   0       1.132   3.864  36.515  0.00  0.00     0.042 A 
ATOM     29  H   UNK d   0       1.725   3.810  34.397  0.00  0.00     0.166 HD
ATOM     30  C   UNK d   0       1.020   2.532  36.945  0.00  0.00     0.062 C 
ATOM     31  C   UNK d   0       0.851   4.894  37.444  0.00  0.00    -0.013 A 
ATOM     32  C   UNK d   0       1.849   1.464  36.644  0.00  0.00     0.066 A 
BRANCH   8  33
ATOM     33  C   UNK d   0       3.392  -1.872  36.562  0.00  0.00     0.151 C 
BRANCH  33  34
ATOM     34  C   UNK d   0       4.512  -2.033  37.507  0.00  0.00     0.143 C 
ATOM     35  O   UNK d   0       4.305  -2.291  38.701  0.00  0.00    -0.650 OA
BRANCH  34  36
ATOM     36  O   UNK d   0       5.803  -1.893  37.054  0.00  0.00    -0.776 OA
ATOM     37  H   UNK d   0       6.239  -2.606  36.454  0.00  0.00     0.167 HD
ENDBRANCH  34  36
ENDBRANCH  33  34
ENDBRANCH   8  33
BRANCH  31  38
ATOM     38  C   UNK d   0       0.439   4.764  38.892  0.00  0.00     0.151 C 
BRANCH  38  39
ATOM     39  C   UNK d   0       1.566   4.598  39.784  0.00  0.00     0.143 C 
ATOM     40  O   UNK d   0       2.206   3.534  39.858  0.00  0.00    -0.650 OA
BRANCH  39  41
ATOM     41  O   UNK d   0       1.961   5.662  40.595  0.00  0.00    -0.776 OA
ATOM     42  H   UNK d   0       1.926   6.598  40.179  0.00  0.00     0.167 HD
ENDBRANCH  39  41
ENDBRANCH  38  39
ENDBRANCH  31  38
BRANCH  27  43
ATOM     43  C   UNK d   0       0.848   7.421  37.380  0.00  0.00     0.052 C 
BRANCH  43  44
ATOM     44  C   UNK d   0       2.112   8.017  37.906  0.00  0.00     0.115 C 
BRANCH  44  45
ATOM     45  C   UNK d   0       1.728   8.893  39.044  0.00  0.00     0.139 C 
ATOM     46  O   UNK d   0       2.005   8.508  40.207  0.00  0.00    -0.650 OA
BRANCH  45  47
ATOM     47  O   UNK d   0       1.089  10.102  38.874  0.00  0.00    -0.776 OA
ATOM     48  H   UNK d   0       1.568  11.010  38.986  0.00  0.00     0.167 HD
ENDBRANCH  45  47
ENDBRANCH  44  45
ENDBRANCH  43  44
ENDBRANCH  27  43
BRANCH  24  49
ATOM     49  C   UNK d   0       2.800   9.137  32.492  0.00  0.00     0.052 C 
BRANCH  49  50
ATOM     50  C   UNK d   0       2.007   9.226  31.214  0.00  0.00     0.115 C 
BRANCH  50  51
ATOM     51  C   UNK d   0       1.720  10.559  30.700  0.00  0.00     0.139 C 
ATOM     52  O   UNK d   0       2.512  11.521  30.838  0.00  0.00    -0.650 OA
BRANCH  51  53
ATOM     53  O   UNK d   0       0.529  10.795  30.032  0.00  0.00    -0.776 OA
ATOM     54  H   UNK d   0      -0.190  10.094  30.078  0.00  0.00     0.167 HD
ENDBRANCH  51  53
ENDBRANCH  50  51
ENDBRANCH  49  50
ENDBRANCH  24  49
BRANCH  21  55
ATOM     55  C   UNK d   0       5.233   7.858  31.080  0.00  0.00     0.151 C 
BRANCH  55  56
ATOM     56  C   UNK d   0       5.050   7.259  29.749  0.00  0.00     0.143 C 
ATOM     57  O   UNK d   0       5.798   6.369  29.300  0.00  0.00    -0.650 OA
BRANCH  56  58
ATOM     58  O   UNK d   0       3.989   7.720  28.970  0.00  0.00    -0.776 OA
ATOM     59  H   UNK d   0       3.055   7.379  29.260  0.00  0.00     0.167 HD
ENDBRANCH  56  58
ENDBRANCH  55  56
ENDBRANCH  21  55
BRANCH  18  60
ATOM     60  C   UNK d   0       5.974   2.580  30.440  0.00  0.00     0.151 C 
BRANCH  60  61
ATOM     61  C   UNK d   0       7.411   2.893  30.454  0.00  0.00     0.143 C 
ATOM     62  O   UNK d   0       8.340   2.106  30.637  0.00  0.00    -0.650 OA
BRANCH  61  63
ATOM     63  O   UNK d   0       7.733   4.253  30.230  0.00  0.00    -0.776 OA
ATOM     64  H   UNK d   0       7.344   4.980  30.804  0.00  0.00     0.167 HD
ENDBRANCH  61  63
ENDBRANCH  60  61
ENDBRANCH  18  60
BRANCH  14  65
ATOM     65  C   UNK d   0       5.697  -0.029  31.965  0.00  0.00     0.052 C 
BRANCH  65  66
ATOM     66  C   UNK d   0       7.106  -0.452  32.184  0.00  0.00     0.115 C 
BRANCH  66  67
ATOM     67  C   UNK d   0       7.392  -1.540  33.075  0.00  0.00     0.139 C 
ATOM     68  O   UNK d   0       7.710  -2.679  32.570  0.00  0.00    -0.650 OA
BRANCH  67  69
ATOM     69  O   UNK d   0       7.371  -1.530  34.469  0.00  0.00    -0.776 OA
ATOM     70  H   UNK d   0       6.436  -1.546  34.903  0.00  0.00     0.167 HD
ENDBRANCH  67  69
ENDBRANCH  66  67
ENDBRANCH  65  66
ENDBRANCH  14  65
ENDBRANCH   6   7
ENDBRANCH   5   6
ENDBRANCH   2   5
TORSDOF 28
ENDMDL
MODEL 18
REMARK VINA RESULT:      -7.7     27.362     31.377
REMARK  28 active torsions:
REMARK  status: ('A' for Active; 'I' for Inactive)
REMARK    1  A    between atoms: C_2  and  O_3 
REMARK    2  A    between atoms: C_2  and  C_4 
REMARK    3  A    between atoms: C_4  and  C_5 
REMARK    4  A    between atoms: C_5  and  C_6 
REMARK    5  A    between atoms: C_7  and  C_8 
REMARK    6  A    between atoms: C_8  and  C_9 
REMARK    7  A    between atoms: C_9  and  O_11 
REMARK    8  A    between atoms: C_28  and  C_29 
REMARK    9  A    between atoms: C_29  and  C_30 
REMARK   10  A    between atoms: C_30  and  O_32 
REMARK   11  A    between atoms: C_33  and  C_34 
REMARK   12  A    between atoms: C_34  and  C_35 
REMARK   13  A    between atoms: C_35  and  C_36 
REMARK   14  A    between atoms: C_36  and  O_38 
REMARK   15  A    between atoms: C_39  and  C_40 
REMARK   16  A    between atoms: C_40  and  C_41 
REMARK   17  A    between atoms: C_41  and  C_42 
REMARK   18  A    between atoms: C_42  and  O_44 
REMARK   19  A    between atoms: C_45  and  C_46 
REMARK   20  A    between atoms: C_46  and  C_47 
REMARK   21  A    between atoms: C_47  and  O_49 
REMARK   22  A    between atoms: C_50  and  C_51 
REMARK   23  A    between atoms: C_51  and  C_52 
REMARK   24  A    between atoms: C_52  and  O_54 
REMARK   25  A    between atoms: C_55  and  C_56 
REMARK   26  A    between atoms: C_56  and  C_57 
REMARK   27  A    between atoms: C_57  and  C_58 
REMARK   28  A    between atoms: C_58  and  O_60 
ROOT
ATOM      1  O   UNK d   0       5.072  -2.651  40.503  0.00  0.00    -0.650 OA
ATOM      2  C   UNK d   0       3.849  -2.670  40.241  0.00  0.00     0.139 C 
ENDROOT
BRANCH   2   3
ATOM      3  O   UNK d   0       2.941  -2.455  41.249  0.00  0.00    -0.776 OA
ATOM      4  H   UNK d   0       2.368  -1.609  41.271  0.00  0.00     0.167 HD
ENDBRANCH   2   3
BRANCH   2   5
ATOM      5  C   UNK d   0       3.386  -2.925  38.847  0.00  0.00     0.115 C 
BRANCH   5   6
ATOM      6  C   UNK d   0       4.564  -3.210  37.955  0.00  0.00     0.052 C 
BRANCH   6   7
ATOM      7  C   UNK d   0       4.915  -2.041  37.065  0.00  0.00    -0.020 A 
ATOM      8  C   UNK d   0       5.948  -1.926  36.270  0.00  0.00    -0.011 A 
ATOM      9  C   UNK d   0       5.870  -0.626  35.625  0.00  0.00     0.067 A 
ATOM     10  C   UNK d   0       6.627   0.082  34.678  0.00  0.00     0.062 C 
ATOM     11  N   UNK d   0       4.761  -0.014  36.091  0.00  0.00    -0.248 NA
ATOM     12  C   UNK d   0       6.240   1.222  33.965  0.00  0.00     0.041 A 
ATOM     13  N   UNK d   0       5.588   2.333  34.356  0.00  0.00    -0.355 N 
ATOM     14  C   UNK d   0       6.489   1.276  32.582  0.00  0.00    -0.022 A 
ATOM     15  C   UNK d   0       5.410   3.088  33.255  0.00  0.00     0.042 A 
ATOM     16  H   UNK d   0       5.277   2.588  35.393  0.00  0.00     0.166 HD
ATOM     17  C   UNK d   0       4.791   4.344  33.099  0.00  0.00     0.062 C 
ATOM     18  C   UNK d   0       5.962   2.458  32.123  0.00  0.00    -0.013 A 
ATOM     19  C   UNK d   0       3.603   4.790  33.619  0.00  0.00     0.067 A 
ATOM     20  N   UNK d   0       3.030   4.031  34.557  0.00  0.00    -0.248 NA
ATOM     21  C   UNK d   0       2.732   5.934  33.403  0.00  0.00    -0.011 A 
ATOM     22  C   UNK d   0       1.847   4.595  34.969  0.00  0.00     0.066 A 
ATOM     23  C   UNK d   0       1.162   3.926  35.972  0.00  0.00     0.062 C 
ATOM     24  C   UNK d   0       1.705   5.811  34.193  0.00  0.00    -0.020 A 
ATOM     25  C   UNK d   0       1.574   2.789  36.685  0.00  0.00     0.041 A 
ATOM     26  N   UNK d   0       2.209   1.678  36.293  0.00  0.00    -0.355 N 
ATOM     27  C   UNK d   0       1.328   2.737  38.074  0.00  0.00    -0.022 A 
ATOM     28  C   UNK d   0       2.380   0.920  37.388  0.00  0.00     0.042 A 
ATOM     29  H   UNK d   0       2.512   1.418  35.249  0.00  0.00     0.166 HD
ATOM     30  C   UNK d   0       2.985  -0.336  37.556  0.00  0.00     0.062 C 
ATOM     31  C   UNK d   0       1.834   1.558  38.527  0.00  0.00    -0.013 A 
ATOM     32  C   UNK d   0       4.142  -0.813  36.961  0.00  0.00     0.066 A 
BRANCH   8  33
ATOM     33  C   UNK d   0       7.014  -2.922  36.054  0.00  0.00     0.151 C 
BRANCH  33  34
ATOM     34  C   UNK d   0       8.007  -2.939  37.143  0.00  0.00     0.143 C 
ATOM     35  O   UNK d   0       8.161  -3.946  37.849  0.00  0.00    -0.650 OA
BRANCH  34  36
ATOM     36  O   UNK d   0       8.772  -1.819  37.378  0.00  0.00    -0.776 OA
ATOM     37  H   UNK d   0       8.344  -0.887  37.459  0.00  0.00     0.167 HD
ENDBRANCH  34  36
ENDBRANCH  33  34
ENDBRANCH   8  33
BRANCH  31  38
ATOM     38  C   UNK d   0       1.816   1.070  39.957  0.00  0.00     0.151 C 
BRANCH  38  39
ATOM     39  C   UNK d   0       3.098   1.207  40.614  0.00  0.00     0.143 C 
ATOM     40  O   UNK d   0       3.472   0.432  41.512  0.00  0.00    -0.650 OA
BRANCH  39  41
ATOM     41  O   UNK d   0       3.956   2.240  40.236  0.00  0.00    -0.776 OA
ATOM     42  H   UNK d   0       4.892   2.238  40.653  0.00  0.00     0.167 HD
ENDBRANCH  39  41
ENDBRANCH  38  39
ENDBRANCH  31  38
BRANCH  27  43
ATOM     43  C   UNK d   0       0.642   3.743  38.964  0.00  0.00     0.052 C 
BRANCH  43  44
ATOM     44  C   UNK d   0       1.591   4.529  39.809  0.00  0.00     0.115 C 
BRANCH  44  45
ATOM     45  C   UNK d   0       0.995   4.593  41.169  0.00  0.00     0.139 C 
ATOM     46  O   UNK d   0       1.707   4.247  42.144  0.00  0.00    -0.650 OA
BRANCH  45  47
ATOM     47  O   UNK d   0      -0.295   5.019  41.400  0.00  0.00    -0.776 OA
ATOM     48  H   UNK d   0      -0.516   5.864  41.953  0.00  0.00     0.167 HD
ENDBRANCH  45  47
ENDBRANCH  44  45
ENDBRANCH  43  44
ENDBRANCH  27  43
BRANCH  24  49
ATOM     49  C   UNK d   0       0.594   6.769  34.327  0.00  0.00     0.052 C 
BRANCH  49  50
ATOM     50  C   UNK d   0       0.655   7.459  35.666  0.00  0.00     0.115 C 
BRANCH  50  51
ATOM     51  C   UNK d   0       1.853   8.235  35.959  0.00  0.00     0.139 C 
ATOM     52  O   UNK d   0       2.568   8.019  36.966  0.00  0.00    -0.650 OA
BRANCH  51  53
ATOM     53  O   UNK d   0       2.234   9.259  35.106  0.00  0.00    -0.776 OA
ATOM     54  H   UNK d   0       2.392  10.170  35.498  0.00  0.00     0.167 HD
ENDBRANCH  51  53
ENDBRANCH  50  51
ENDBRANCH  49  50
ENDBRANCH  24  49
BRANCH  21  55
ATOM     55  C   UNK d   0       3.021   7.032  32.434  0.00  0.00     0.151 C 
BRANCH  55  56
ATOM     56  C   UNK d   0       3.026   6.552  31.043  0.00  0.00     0.143 C 
ATOM     57  O   UNK d   0       1.981   6.323  30.404  0.00  0.00    -0.650 OA
BRANCH  56  58
ATOM     58  O   UNK d   0       4.262   6.351  30.431  0.00  0.00    -0.776 OA
ATOM     59  H   UNK d   0       5.074   6.727  30.953  0.00  0.00     0.167 HD
ENDBRANCH  56  58
ENDBRANCH  55  56
ENDBRANCH  21  55
BRANCH  18  60
ATOM     60  C   UNK d   0       5.998   2.921  30.688  0.00  0.00     0.151 C 
BRANCH  60  61
ATOM     61  C   UNK d   0       7.226   3.719  30.552  0.00  0.00     0.143 C 
ATOM     62  O   UNK d   0       8.341   3.315  30.223  0.00  0.00    -0.650 OA
BRANCH  61  63
ATOM     63  O   UNK d   0       7.082   5.099  30.835  0.00  0.00    -0.776 OA
ATOM     64  H   UNK d   0       6.414   5.422  31.513  0.00  0.00     0.167 HD
ENDBRANCH  61  63
ENDBRANCH  60  61
ENDBRANCH  18  60
BRANCH  14  65
ATOM     65  C   UNK d   0       7.266   0.352  31.688  0.00  0.00     0.052 C 
BRANCH  65  66
ATOM     66  C   UNK d   0       6.396  -0.493  30.827  0.00  0.00     0.115 C 
BRANCH  66  67
ATOM     67  C   UNK d   0       6.869  -1.771  30.373  0.00  0.00     0.139 C 
ATOM     68  O   UNK d   0       7.081  -1.936  29.116  0.00  0.00    -0.650 OA
BRANCH  67  69
ATOM     69  O   UNK d   0       7.140  -2.902  31.142  0.00  0.00    -0.776 OA
ATOM     70  H   UNK d   0       7.162  -3.796  30.631  0.00  0.00     0.167 HD
ENDBRANCH  67  69
ENDBRANCH  66  67
ENDBRANCH  65  66
ENDBRANCH  14  65
ENDBRANCH   6   7
ENDBRANCH   5   6
ENDBRANCH   2   5
TORSDOF 28
ENDMDL
MODEL 19
REMARK VINA RESULT:      -7.7      1.690      9.441
REMARK  28 active torsions:
REMARK  status: ('A' for Active; 'I' for Inactive)
REMARK    1  A    between atoms: C_2  and  O_3 
REMARK    2  A    between atoms: C_2  and  C_4 
REMARK    3  A    between atoms: C_4  and  C_5 
REMARK    4  A    between atoms: C_5  and  C_6 
REMARK    5  A    between atoms: C_7  and  C_8 
REMARK    6  A    between atoms: C_8  and  C_9 
REMARK    7  A    between atoms: C_9  and  O_11 
REMARK    8  A    between atoms: C_28  and  C_29 
REMARK    9  A    between atoms: C_29  and  C_30 
REMARK   10  A    between atoms: C_30  and  O_32 
REMARK   11  A    between atoms: C_33  and  C_34 
REMARK   12  A    between atoms: C_34  and  C_35 
REMARK   13  A    between atoms: C_35  and  C_36 
REMARK   14  A    between atoms: C_36  and  O_38 
REMARK   15  A    between atoms: C_39  and  C_40 
REMARK   16  A    between atoms: C_40  and  C_41 
REMARK   17  A    between atoms: C_41  and  C_42 
REMARK   18  A    between atoms: C_42  and  O_44 
REMARK   19  A    between atoms: C_45  and  C_46 
REMARK   20  A    between atoms: C_46  and  C_47 
REMARK   21  A    between atoms: C_47  and  O_49 
REMARK   22  A    between atoms: C_50  and  C_51 
REMARK   23  A    between atoms: C_51  and  C_52 
REMARK   24  A    between atoms: C_52  and  O_54 
REMARK   25  A    between atoms: C_55  and  C_56 
REMARK   26  A    between atoms: C_56  and  C_57 
REMARK   27  A    between atoms: C_57  and  C_58 
REMARK   28  A    between atoms: C_58  and  O_60 
ROOT
ATOM      1  O   UNK d   0      35.827  -6.863  37.554  0.00  0.00    -0.650 OA
ATOM      2  C   UNK d   0      35.697  -7.563  38.582  0.00  0.00     0.139 C 
ENDROOT
BRANCH   2   3
ATOM      3  O   UNK d   0      36.788  -7.792  39.385  0.00  0.00    -0.776 OA
ATOM      4  H   UNK d   0      36.980  -8.722  39.763  0.00  0.00     0.167 HD
ENDBRANCH   2   3
BRANCH   2   5
ATOM      5  C   UNK d   0      34.368  -8.144  38.928  0.00  0.00     0.115 C 
BRANCH   5   6
ATOM      6  C   UNK d   0      34.398  -8.712  40.321  0.00  0.00     0.052 C 
BRANCH   6   7
ATOM      7  C   UNK d   0      34.172  -7.661  41.382  0.00  0.00    -0.020 A 
ATOM      8  C   UNK d   0      34.310  -7.792  42.677  0.00  0.00    -0.011 A 
ATOM      9  C   UNK d   0      33.975  -6.518  43.291  0.00  0.00     0.067 A 
ATOM     10  C   UNK d   0      33.940  -6.000  44.595  0.00  0.00     0.062 C 
ATOM     11  N   UNK d   0      33.637  -5.670  42.296  0.00  0.00    -0.248 NA
ATOM     12  C   UNK d   0      33.857  -4.655  44.970  0.00  0.00     0.041 A 
ATOM     13  N   UNK d   0      33.106  -3.646  44.491  0.00  0.00    -0.355 N 
ATOM     14  C   UNK d   0      34.710  -4.177  45.982  0.00  0.00    -0.022 A 
ATOM     15  C   UNK d   0      33.466  -2.538  45.166  0.00  0.00     0.042 A 
ATOM     16  H   UNK d   0      32.323  -3.719  43.704  0.00  0.00     0.166 HD
ATOM     17  C   UNK d   0      32.997  -1.213  45.064  0.00  0.00     0.062 C 
ATOM     18  C   UNK d   0      34.469  -2.831  46.109  0.00  0.00    -0.013 A 
ATOM     19  C   UNK d   0      32.753  -0.469  43.937  0.00  0.00     0.067 A 
ATOM     20  N   UNK d   0      32.763  -1.118  42.770  0.00  0.00    -0.248 NA
ATOM     21  C   UNK d   0      32.481   0.929  43.647  0.00  0.00    -0.011 A 
ATOM     22  C   UNK d   0      32.520  -0.245  41.738  0.00  0.00     0.066 A 
ATOM     23  C   UNK d   0      32.466  -0.796  40.466  0.00  0.00     0.062 C 
ATOM     24  C   UNK d   0      32.350   1.054  42.358  0.00  0.00    -0.020 A 
ATOM     25  C   UNK d   0      32.539  -2.152  40.111  0.00  0.00     0.041 A 
ATOM     26  N   UNK d   0      33.296  -3.152  40.577  0.00  0.00    -0.355 N 
ATOM     27  C   UNK d   0      31.679  -2.632  39.099  0.00  0.00    -0.022 A 
ATOM     28  C   UNK d   0      32.945  -4.256  39.899  0.00  0.00     0.042 A 
ATOM     29  H   UNK d   0      34.090  -3.074  41.360  0.00  0.00     0.166 HD
ATOM     30  C   UNK d   0      33.410  -5.578  39.984  0.00  0.00     0.062 C 
ATOM     31  C   UNK d   0      31.929  -3.962  38.959  0.00  0.00    -0.013 A 
ATOM     32  C   UNK d   0      33.736  -6.297  41.123  0.00  0.00     0.066 A 
BRANCH   8  33
ATOM     33  C   UNK d   0      34.726  -9.005  43.404  0.00  0.00     0.151 C 
BRANCH  33  34
ATOM     34  C   UNK d   0      33.582  -9.809  43.873  0.00  0.00     0.143 C 
ATOM     35  O   UNK d   0      32.418  -9.445  43.657  0.00  0.00    -0.650 OA
BRANCH  34  36
ATOM     36  O   UNK d   0      33.815 -10.978  44.560  0.00  0.00    -0.776 OA
ATOM     37  H   UNK d   0      33.945 -10.981  45.581  0.00  0.00     0.167 HD
ENDBRANCH  34  36
ENDBRANCH  33  34
ENDBRANCH   8  33
BRANCH  31  38
ATOM     38  C   UNK d   0      31.237  -4.903  38.001  0.00  0.00     0.151 C 
BRANCH  38  39
ATOM     39  C   UNK d   0      31.922  -5.015  36.730  0.00  0.00     0.143 C 
ATOM     40  O   UNK d   0      33.149  -5.199  36.650  0.00  0.00    -0.650 OA
BRANCH  39  41
ATOM     41  O   UNK d   0      31.192  -4.914  35.546  0.00  0.00    -0.776 OA
ATOM     42  H   UNK d   0      30.179  -4.791  35.638  0.00  0.00     0.167 HD
ENDBRANCH  39  41
ENDBRANCH  38  39
ENDBRANCH  31  38
BRANCH  27  43
ATOM     43  C   UNK d   0      30.655  -1.888  38.279  0.00  0.00     0.052 C 
BRANCH  43  44
ATOM     44  C   UNK d   0      31.238  -1.201  37.087  0.00  0.00     0.115 C 
BRANCH  44  45
ATOM     45  C   UNK d   0      30.261  -1.369  35.980  0.00  0.00     0.139 C 
ATOM     46  O   UNK d   0      30.076  -0.401  35.202  0.00  0.00    -0.650 OA
BRANCH  45  47
ATOM     47  O   UNK d   0      29.561  -2.537  35.772  0.00  0.00    -0.776 OA
ATOM     48  H   UNK d   0      30.016  -3.423  35.498  0.00  0.00     0.167 HD
ENDBRANCH  45  47
ENDBRANCH  44  45
ENDBRANCH  43  44
ENDBRANCH  27  43
BRANCH  24  49
ATOM     49  C   UNK d   0      32.031   2.296  41.634  0.00  0.00     0.052 C 
BRANCH  49  50
ATOM     50  C   UNK d   0      33.102   2.602  40.619  0.00  0.00     0.115 C 
BRANCH  50  51
ATOM     51  C   UNK d   0      32.749   2.449  39.214  0.00  0.00     0.139 C 
ATOM     52  O   UNK d   0      33.411   1.736  38.424  0.00  0.00    -0.650 OA
BRANCH  51  53
ATOM     53  O   UNK d   0      31.641   3.112  38.708  0.00  0.00    -0.776 OA
ATOM     54  H   UNK d   0      30.843   3.230  39.308  0.00  0.00     0.167 HD
ENDBRANCH  51  53
ENDBRANCH  50  51
ENDBRANCH  49  50
ENDBRANCH  24  49
BRANCH  21  55
ATOM     55  C   UNK d   0      32.377   1.993  44.689  0.00  0.00     0.151 C 
BRANCH  55  56
ATOM     56  C   UNK d   0      33.581   2.060  45.531  0.00  0.00     0.143 C 
ATOM     57  O   UNK d   0      34.632   2.619  45.162  0.00  0.00    -0.650 OA
BRANCH  56  58
ATOM     58  O   UNK d   0      33.525   1.469  46.792  0.00  0.00    -0.776 OA
ATOM     59  H   UNK d   0      34.220   1.826  47.473  0.00  0.00     0.167 HD
ENDBRANCH  56  58
ENDBRANCH  55  56
ENDBRANCH  21  55
BRANCH  18  60
ATOM     60  C   UNK d   0      35.175  -1.915  47.079  0.00  0.00     0.151 C 
BRANCH  60  61
ATOM     61  C   UNK d   0      36.541  -1.753  46.560  0.00  0.00     0.143 C 
ATOM     62  O   UNK d   0      36.923  -1.939  45.404  0.00  0.00    -0.650 OA
BRANCH  61  63
ATOM     63  O   UNK d   0      37.502  -1.338  47.513  0.00  0.00    -0.776 OA
ATOM     64  H   UNK d   0      37.836  -0.391  47.533  0.00  0.00     0.167 HD
ENDBRANCH  61  63
ENDBRANCH  60  61
ENDBRANCH  18  60
BRANCH  14  65
ATOM     65  C   UNK d   0      35.655  -4.906  46.894  0.00  0.00     0.052 C 
BRANCH  65  66
ATOM     66  C   UNK d   0      35.139  -5.033  48.284  0.00  0.00     0.115 C 
BRANCH  66  67
ATOM     67  C   UNK d   0      34.259  -6.116  48.621  0.00  0.00     0.139 C 
ATOM     68  O   UNK d   0      33.018  -6.022  48.296  0.00  0.00    -0.650 OA
BRANCH  67  69
ATOM     69  O   UNK d   0      34.580  -7.303  49.278  0.00  0.00    -0.776 OA
ATOM     70  H   UNK d   0      34.144  -7.435  50.203  0.00  0.00     0.167 HD
ENDBRANCH  67  69
ENDBRANCH  66  67
ENDBRANCH  65  66
ENDBRANCH  14  65
ENDBRANCH   6   7
ENDBRANCH   5   6
ENDBRANCH   2   5
TORSDOF 28
ENDMDL
MODEL 20
REMARK VINA RESULT:      -7.6      1.716      8.593
REMARK  28 active torsions:
REMARK  status: ('A' for Active; 'I' for Inactive)
REMARK    1  A    between atoms: C_2  and  O_3 
REMARK    2  A    between atoms: C_2  and  C_4 
REMARK    3  A    between atoms: C_4  and  C_5 
REMARK    4  A    between atoms: C_5  and  C_6 
REMARK    5  A    between atoms: C_7  and  C_8 
REMARK    6  A    between atoms: C_8  and  C_9 
REMARK    7  A    between atoms: C_9  and  O_11 
REMARK    8  A    between atoms: C_28  and  C_29 
REMARK    9  A    between atoms: C_29  and  C_30 
REMARK   10  A    between atoms: C_30  and  O_32 
REMARK   11  A    between atoms: C_33  and  C_34 
REMARK   12  A    between atoms: C_34  and  C_35 
REMARK   13  A    between atoms: C_35  and  C_36 
REMARK   14  A    between atoms: C_36  and  O_38 
REMARK   15  A    between atoms: C_39  and  C_40 
REMARK   16  A    between atoms: C_40  and  C_41 
REMARK   17  A    between atoms: C_41  and  C_42 
REMARK   18  A    between atoms: C_42  and  O_44 
REMARK   19  A    between atoms: C_45  and  C_46 
REMARK   20  A    between atoms: C_46  and  C_47 
REMARK   21  A    between atoms: C_47  and  O_49 
REMARK   22  A    between atoms: C_50  and  C_51 
REMARK   23  A    between atoms: C_51  and  C_52 
REMARK   24  A    between atoms: C_52  and  O_54 
REMARK   25  A    between atoms: C_55  and  C_56 
REMARK   26  A    between atoms: C_56  and  C_57 
REMARK   27  A    between atoms: C_57  and  C_58 
REMARK   28  A    between atoms: C_58  and  O_60 
ROOT
ATOM      1  O   UNK d   0      34.669   1.685  38.590  0.00  0.00    -0.650 OA
ATOM      2  C   UNK d   0      33.920   2.547  39.100  0.00  0.00     0.139 C 
ENDROOT
BRANCH   2   3
ATOM      3  O   UNK d   0      33.985   3.845  38.655  0.00  0.00    -0.776 OA
ATOM      4  H   UNK d   0      34.597   4.107  37.880  0.00  0.00     0.167 HD
ENDBRANCH   2   3
BRANCH   2   5
ATOM      5  C   UNK d   0      32.967   2.164  40.181  0.00  0.00     0.115 C 
BRANCH   5   6
ATOM      6  C   UNK d   0      31.825   1.370  39.608  0.00  0.00     0.052 C 
BRANCH   6   7
ATOM      7  C   UNK d   0      32.022  -0.120  39.753  0.00  0.00    -0.020 A 
ATOM      8  C   UNK d   0      31.661  -1.058  38.915  0.00  0.00    -0.011 A 
ATOM      9  C   UNK d   0      32.052  -2.337  39.485  0.00  0.00     0.067 A 
ATOM     10  C   UNK d   0      31.977  -3.684  39.096  0.00  0.00     0.062 C 
ATOM     11  N   UNK d   0      32.638  -2.084  40.674  0.00  0.00    -0.248 NA
ATOM     12  C   UNK d   0      32.662  -4.767  39.657  0.00  0.00     0.041 A 
ATOM     13  N   UNK d   0      32.905  -5.093  40.941  0.00  0.00    -0.355 N 
ATOM     14  C   UNK d   0      33.283  -5.696  38.802  0.00  0.00    -0.022 A 
ATOM     15  C   UNK d   0      33.670  -6.201  40.922  0.00  0.00     0.042 A 
ATOM     16  H   UNK d   0      32.528  -4.562  41.842  0.00  0.00     0.166 HD
ATOM     17  C   UNK d   0      34.206  -6.959  41.982  0.00  0.00     0.062 C 
ATOM     18  C   UNK d   0      33.928  -6.609  39.599  0.00  0.00    -0.013 A 
ATOM     19  C   UNK d   0      34.832  -6.524  43.123  0.00  0.00     0.067 A 
ATOM     20  N   UNK d   0      34.767  -5.217  43.388  0.00  0.00    -0.248 NA
ATOM     21  C   UNK d   0      35.610  -7.138  44.186  0.00  0.00    -0.011 A 
ATOM     22  C   UNK d   0      35.447  -4.931  44.546  0.00  0.00     0.066 A 
ATOM     23  C   UNK d   0      35.429  -3.608  44.961  0.00  0.00     0.062 C 
ATOM     24  C   UNK d   0      35.971  -6.200  45.013  0.00  0.00    -0.020 A 
ATOM     25  C   UNK d   0      34.723  -2.537  44.390  0.00  0.00     0.041 A 
ATOM     26  N   UNK d   0      34.494  -2.204  43.114  0.00  0.00    -0.355 N 
ATOM     27  C   UNK d   0      34.097  -1.607  45.249  0.00  0.00    -0.022 A 
ATOM     28  C   UNK d   0      33.739  -1.094  43.130  0.00  0.00     0.042 A 
ATOM     29  H   UNK d   0      34.883  -2.732  42.210  0.00  0.00     0.166 HD
ATOM     30  C   UNK d   0      33.207  -0.325  42.084  0.00  0.00     0.062 C 
ATOM     31  C   UNK d   0      33.472  -0.691  44.460  0.00  0.00    -0.013 A 
ATOM     32  C   UNK d   0      32.652  -0.768  40.893  0.00  0.00     0.066 A 
BRANCH   8  33
ATOM     33  C   UNK d   0      30.976  -0.875  37.623  0.00  0.00     0.151 C 
BRANCH  33  34
ATOM     34  C   UNK d   0      31.895  -0.473  36.542  0.00  0.00     0.143 C 
ATOM     35  O   UNK d   0      31.714  -0.857  35.378  0.00  0.00    -0.650 OA
BRANCH  34  36
ATOM     36  O   UNK d   0      32.967   0.338  36.833  0.00  0.00    -0.776 OA
ATOM     37  H   UNK d   0      33.932   0.035  36.644  0.00  0.00     0.167 HD
ENDBRANCH  34  36
ENDBRANCH  33  34
ENDBRANCH   8  33
BRANCH  31  38
ATOM     38  C   UNK d   0      32.657   0.488  44.938  0.00  0.00     0.151 C 
BRANCH  38  39
ATOM     39  C   UNK d   0      33.404   1.728  44.924  0.00  0.00     0.143 C 
ATOM     40  O   UNK d   0      34.365   1.935  45.686  0.00  0.00    -0.650 OA
BRANCH  39  41
ATOM     41  O   UNK d   0      33.045   2.736  44.029  0.00  0.00    -0.776 OA
ATOM     42  H   UNK d   0      33.736   2.987  43.315  0.00  0.00     0.167 HD
ENDBRANCH  39  41
ENDBRANCH  38  39
ENDBRANCH  31  38
BRANCH  27  43
ATOM     43  C   UNK d   0      34.075  -1.559  46.757  0.00  0.00     0.052 C 
BRANCH  43  44
ATOM     44  C   UNK d   0      35.324  -2.090  47.383  0.00  0.00     0.115 C 
BRANCH  44  45
ATOM     45  C   UNK d   0      36.288  -0.960  47.431  0.00  0.00     0.139 C 
ATOM     46  O   UNK d   0      37.514  -1.230  47.475  0.00  0.00    -0.650 OA
BRANCH  45  47
ATOM     47  O   UNK d   0      35.893   0.360  47.425  0.00  0.00    -0.776 OA
ATOM     48  H   UNK d   0      35.612   0.865  48.281  0.00  0.00     0.167 HD
ENDBRANCH  45  47
ENDBRANCH  44  45
ENDBRANCH  43  44
ENDBRANCH  27  43
BRANCH  24  49
ATOM     49  C   UNK d   0      36.741  -6.385  46.255  0.00  0.00     0.052 C 
BRANCH  49  50
ATOM     50  C   UNK d   0      35.886  -6.072  47.455  0.00  0.00     0.115 C 
BRANCH  50  51
ATOM     51  C   UNK d   0      34.793  -6.988  47.750  0.00  0.00     0.139 C 
ATOM     52  O   UNK d   0      33.588  -6.649  47.680  0.00  0.00    -0.650 OA
BRANCH  51  53
ATOM     53  O   UNK d   0      35.073  -8.292  48.128  0.00  0.00    -0.776 OA
ATOM     54  H   UNK d   0      35.596  -8.441  48.973  0.00  0.00     0.167 HD
ENDBRANCH  51  53
ENDBRANCH  50  51
ENDBRANCH  49  50
ENDBRANCH  24  49
BRANCH  21  55
ATOM     55  C   UNK d   0      35.908  -8.599  44.267  0.00  0.00     0.151 C 
BRANCH  55  56
ATOM     56  C   UNK d   0      34.751  -9.372  44.743  0.00  0.00     0.143 C 
ATOM     57  O   UNK d   0      34.667 -10.609  44.613  0.00  0.00    -0.650 OA
BRANCH  56  58
ATOM     58  O   UNK d   0      33.715  -8.675  45.362  0.00  0.00    -0.776 OA
ATOM     59  H   UNK d   0      33.491  -7.757  44.937  0.00  0.00     0.167 HD
ENDBRANCH  56  58
ENDBRANCH  55  56
ENDBRANCH  21  55
BRANCH  18  60
ATOM     60  C   UNK d   0      34.733  -7.781  39.094  0.00  0.00     0.151 C 
BRANCH  60  61
ATOM     61  C   UNK d   0      36.075  -7.254  38.805  0.00  0.00     0.143 C 
ATOM     62  O   UNK d   0      36.507  -6.879  37.715  0.00  0.00    -0.650 OA
BRANCH  61  63
ATOM     63  O   UNK d   0      36.946  -7.181  39.919  0.00  0.00    -0.776 OA
ATOM     64  H   UNK d   0      37.114  -6.310  40.389  0.00  0.00     0.167 HD
ENDBRANCH  61  63
ENDBRANCH  60  61
ENDBRANCH  18  60
BRANCH  14  65
ATOM     65  C   UNK d   0      33.230  -5.841  37.308  0.00  0.00     0.052 C 
BRANCH  65  66
ATOM     66  C   UNK d   0      32.010  -6.549  36.835  0.00  0.00     0.115 C 
BRANCH  66  67
ATOM     67  C   UNK d   0      31.181  -5.945  35.830  0.00  0.00     0.139 C 
ATOM     68  O   UNK d   0      30.254  -5.135  36.204  0.00  0.00    -0.650 OA
BRANCH  67  69
ATOM     69  O   UNK d   0      31.247  -6.124  34.449  0.00  0.00    -0.776 OA
ATOM     70  H   UNK d   0      32.102  -6.578  34.096  0.00  0.00     0.167 HD
ENDBRANCH  67  69
ENDBRANCH  66  67
ENDBRANCH  65  66
ENDBRANCH  14  65
ENDBRANCH   6   7
ENDBRANCH   5   6
ENDBRANCH   2   5
TORSDOF 28
ENDMDL
