MODEL 1
REMARK VINA RESULT:     -10.5      0.000      0.000
REMARK  28 active torsions:
REMARK  status: ('A' for Active; 'I' for Inactive)
REMARK    1  A    between atoms: C_2  and  O_3 
REMARK    2  A    between atoms: C_2  and  C_4 
REMARK    3  A    between atoms: C_4  and  C_5 
REMARK    4  A    between atoms: C_5  and  C_6 
REMARK    5  A    between atoms: C_7  and  C_8 
REMARK    6  A    between atoms: C_8  and  C_9 
REMARK    7  A    between atoms: C_9  and  O_11 
REMARK    8  A    between atoms: C_28  and  C_29 
REMARK    9  A    between atoms: C_29  and  C_30 
REMARK   10  A    between atoms: C_30  and  O_32 
REMARK   11  A    between atoms: C_33  and  C_34 
REMARK   12  A    between atoms: C_34  and  C_35 
REMARK   13  A    between atoms: C_35  and  C_36 
REMARK   14  A    between atoms: C_36  and  O_38 
REMARK   15  A    between atoms: C_39  and  C_40 
REMARK   16  A    between atoms: C_40  and  C_41 
REMARK   17  A    between atoms: C_41  and  C_42 
REMARK   18  A    between atoms: C_42  and  O_44 
REMARK   19  A    between atoms: C_45  and  C_46 
REMARK   20  A    between atoms: C_46  and  C_47 
REMARK   21  A    between atoms: C_47  and  O_49 
REMARK   22  A    between atoms: C_50  and  C_51 
REMARK   23  A    between atoms: C_51  and  C_52 
REMARK   24  A    between atoms: C_52  and  O_54 
REMARK   25  A    between atoms: C_55  and  C_56 
REMARK   26  A    between atoms: C_56  and  C_57 
REMARK   27  A    between atoms: C_57  and  C_58 
REMARK   28  A    between atoms: C_58  and  O_60 
ROOT
ATOM      1  O   UNK d   0      -1.589   9.657  25.153  0.00  0.00    -0.650 OA
ATOM      2  C   UNK d   0      -0.570   8.936  25.235  0.00  0.00     0.139 C 
ENDROOT
BRANCH   2   3
ATOM      3  O   UNK d   0       0.627   9.501  25.607  0.00  0.00    -0.776 OA
ATOM      4  H   UNK d   0       0.668  10.453  25.976  0.00  0.00     0.167 HD
ENDBRANCH   2   3
BRANCH   2   5
ATOM      5  C   UNK d   0      -0.657   7.480  24.930  0.00  0.00     0.115 C 
BRANCH   5   6
ATOM      6  C   UNK d   0      -0.792   7.269  23.447  0.00  0.00     0.052 C 
BRANCH   6   7
ATOM      7  C   UNK d   0       0.423   7.733  22.680  0.00  0.00    -0.020 A 
ATOM      8  C   UNK d   0       0.477   8.652  21.750  0.00  0.00    -0.011 A 
ATOM      9  C   UNK d   0       1.855   8.746  21.298  0.00  0.00     0.067 A 
ATOM     10  C   UNK d   0       2.565   9.523  20.370  0.00  0.00     0.062 C 
ATOM     11  N   UNK d   0       2.571   7.844  22.003  0.00  0.00    -0.248 NA
ATOM     12  C   UNK d   0       3.954   9.665  20.269  0.00  0.00     0.041 A 
ATOM     13  N   UNK d   0       4.946   8.757  20.351  0.00  0.00    -0.355 N 
ATOM     14  C   UNK d   0       4.497  10.952  20.106  0.00  0.00    -0.022 A 
ATOM     15  C   UNK d   0       6.104   9.437  20.253  0.00  0.00     0.042 A 
ATOM     16  H   UNK d   0       4.829   7.656  20.458  0.00  0.00     0.166 HD
ATOM     17  C   UNK d   0       7.436   8.980  20.277  0.00  0.00     0.062 C 
ATOM     18  C   UNK d   0       5.862  10.816  20.098  0.00  0.00    -0.013 A 
ATOM     19  C   UNK d   0       8.021   8.070  21.121  0.00  0.00     0.067 A 
ATOM     20  N   UNK d   0       7.205   7.363  21.907  0.00  0.00    -0.248 NA
ATOM     21  C   UNK d   0       9.378   7.648  21.423  0.00  0.00    -0.011 A 
ATOM     22  C   UNK d   0       7.930   6.511  22.703  0.00  0.00     0.066 A 
ATOM     23  C   UNK d   0       7.201   5.685  23.546  0.00  0.00     0.062 C 
ATOM     24  C   UNK d   0       9.319   6.738  22.353  0.00  0.00    -0.020 A 
ATOM     25  C   UNK d   0       5.807   5.549  23.623  0.00  0.00     0.041 A 
ATOM     26  N   UNK d   0       4.822   6.452  23.556  0.00  0.00    -0.355 N 
ATOM     27  C   UNK d   0       5.263   4.256  23.782  0.00  0.00    -0.022 A 
ATOM     28  C   UNK d   0       3.666   5.778  23.663  0.00  0.00     0.042 A 
ATOM     29  H   UNK d   0       4.941   7.560  23.460  0.00  0.00     0.166 HD
ATOM     30  C   UNK d   0       2.334   6.221  23.650  0.00  0.00     0.062 C 
ATOM     31  C   UNK d   0       3.909   4.392  23.808  0.00  0.00    -0.013 A 
ATOM     32  C   UNK d   0       1.767   7.202  22.852  0.00  0.00     0.066 A 
BRANCH   8  33
ATOM     33  C   UNK d   0      -0.646   9.456  21.234  0.00  0.00     0.151 C 
BRANCH  33  34
ATOM     34  C   UNK d   0      -0.808  10.735  21.948  0.00  0.00     0.143 C 
ATOM     35  O   UNK d   0      -1.929  11.237  22.108  0.00  0.00    -0.650 OA
BRANCH  34  36
ATOM     36  O   UNK d   0       0.304  11.378  22.441  0.00  0.00    -0.776 OA
ATOM     37  H   UNK d   0       1.051  11.709  21.816  0.00  0.00     0.167 HD
ENDBRANCH  34  36
ENDBRANCH  33  34
ENDBRANCH   8  33
BRANCH  31  38
ATOM     38  C   UNK d   0       2.903   3.273  23.948  0.00  0.00     0.151 C 
BRANCH  38  39
ATOM     39  C   UNK d   0       2.595   2.964  25.328  0.00  0.00     0.143 C 
ATOM     40  O   UNK d   0       1.714   3.568  25.964  0.00  0.00    -0.650 OA
BRANCH  39  41
ATOM     41  O   UNK d   0       3.303   1.955  25.980  0.00  0.00    -0.776 OA
ATOM     42  H   UNK d   0       2.883   1.574  26.834  0.00  0.00     0.167 HD
ENDBRANCH  39  41
ENDBRANCH  38  39
ENDBRANCH  31  38
BRANCH  27  43
ATOM     43  C   UNK d   0       5.968   2.929  23.910  0.00  0.00     0.052 C 
BRANCH  43  44
ATOM     44  C   UNK d   0       5.693   2.002  22.771  0.00  0.00     0.115 C 
BRANCH  44  45
ATOM     45  C   UNK d   0       5.433   0.664  23.365  0.00  0.00     0.139 C 
ATOM     46  O   UNK d   0       5.060  -0.260  22.601  0.00  0.00    -0.650 OA
BRANCH  45  47
ATOM     47  O   UNK d   0       5.588   0.401  24.709  0.00  0.00    -0.776 OA
ATOM     48  H   UNK d   0       4.980   0.813  25.435  0.00  0.00     0.167 HD
ENDBRANCH  45  47
ENDBRANCH  44  45
ENDBRANCH  43  44
ENDBRANCH  27  43
BRANCH  24  49
ATOM     49  C   UNK d   0      10.462   6.011  22.930  0.00  0.00     0.052 C 
BRANCH  49  50
ATOM     50  C   UNK d   0      10.718   6.472  24.342  0.00  0.00     0.115 C 
BRANCH  50  51
ATOM     51  C   UNK d   0      11.847   7.367  24.555  0.00  0.00     0.139 C 
ATOM     52  O   UNK d   0      12.331   8.074  23.640  0.00  0.00    -0.650 OA
BRANCH  51  53
ATOM     53  O   UNK d   0      12.426   7.455  25.811  0.00  0.00    -0.776 OA
ATOM     54  H   UNK d   0      11.929   7.065  26.592  0.00  0.00     0.167 HD
ENDBRANCH  51  53
ENDBRANCH  50  51
ENDBRANCH  49  50
ENDBRANCH  24  49
BRANCH  21  55
ATOM     55  C   UNK d   0      10.593   8.195  20.749  0.00  0.00     0.151 C 
BRANCH  55  56
ATOM     56  C   UNK d   0      10.628   7.857  19.318  0.00  0.00     0.143 C 
ATOM     57  O   UNK d   0      10.867   6.707  18.902  0.00  0.00    -0.650 OA
BRANCH  56  58
ATOM     58  O   UNK d   0      10.381   8.880  18.403  0.00  0.00    -0.776 OA
ATOM     59  H   UNK d   0       9.794   9.654  18.763  0.00  0.00     0.167 HD
ENDBRANCH  56  58
ENDBRANCH  55  56
ENDBRANCH  21  55
BRANCH  18  60
ATOM     60  C   UNK d   0       6.844  11.953  19.953  0.00  0.00     0.151 C 
BRANCH  60  61
ATOM     61  C   UNK d   0       7.616  11.667  18.734  0.00  0.00     0.143 C 
ATOM     62  O   UNK d   0       8.830  11.479  18.652  0.00  0.00    -0.650 OA
BRANCH  61  63
ATOM     63  O   UNK d   0       6.857  11.606  17.541  0.00  0.00    -0.776 OA
ATOM     64  H   UNK d   0       6.788  10.753  17.013  0.00  0.00     0.167 HD
ENDBRANCH  61  63
ENDBRANCH  60  61
ENDBRANCH  18  60
BRANCH  14  65
ATOM     65  C   UNK d   0       3.828  12.275  19.860  0.00  0.00     0.052 C 
BRANCH  65  66
ATOM     66  C   UNK d   0       3.296  12.897  21.102  0.00  0.00     0.115 C 
BRANCH  66  67
ATOM     67  C   UNK d   0       2.609  14.156  21.030  0.00  0.00     0.139 C 
ATOM     68  O   UNK d   0       2.073  14.625  22.100  0.00  0.00    -0.650 OA
BRANCH  67  69
ATOM     69  O   UNK d   0       2.438  14.971  19.912  0.00  0.00    -0.776 OA
ATOM     70  H   UNK d   0       2.883  15.899  19.961  0.00  0.00     0.167 HD
ENDBRANCH  67  69
ENDBRANCH  66  67
ENDBRANCH  65  66
ENDBRANCH  14  65
ENDBRANCH   6   7
ENDBRANCH   5   6
ENDBRANCH   2   5
TORSDOF 28
ENDMDL
MODEL 2
REMARK VINA RESULT:     -10.3      1.280      1.598
REMARK  28 active torsions:
REMARK  status: ('A' for Active; 'I' for Inactive)
REMARK    1  A    between atoms: C_2  and  O_3 
REMARK    2  A    between atoms: C_2  and  C_4 
REMARK    3  A    between atoms: C_4  and  C_5 
REMARK    4  A    between atoms: C_5  and  C_6 
REMARK    5  A    between atoms: C_7  and  C_8 
REMARK    6  A    between atoms: C_8  and  C_9 
REMARK    7  A    between atoms: C_9  and  O_11 
REMARK    8  A    between atoms: C_28  and  C_29 
REMARK    9  A    between atoms: C_29  and  C_30 
REMARK   10  A    between atoms: C_30  and  O_32 
REMARK   11  A    between atoms: C_33  and  C_34 
REMARK   12  A    between atoms: C_34  and  C_35 
REMARK   13  A    between atoms: C_35  and  C_36 
REMARK   14  A    between atoms: C_36  and  O_38 
REMARK   15  A    between atoms: C_39  and  C_40 
REMARK   16  A    between atoms: C_40  and  C_41 
REMARK   17  A    between atoms: C_41  and  C_42 
REMARK   18  A    between atoms: C_42  and  O_44 
REMARK   19  A    between atoms: C_45  and  C_46 
REMARK   20  A    between atoms: C_46  and  C_47 
REMARK   21  A    between atoms: C_47  and  O_49 
REMARK   22  A    between atoms: C_50  and  C_51 
REMARK   23  A    between atoms: C_51  and  C_52 
REMARK   24  A    between atoms: C_52  and  O_54 
REMARK   25  A    between atoms: C_55  and  C_56 
REMARK   26  A    between atoms: C_56  and  C_57 
REMARK   27  A    between atoms: C_57  and  C_58 
REMARK   28  A    between atoms: C_58  and  O_60 
ROOT
ATOM      1  O   UNK d   0      -3.853   5.579  22.689  0.00  0.00    -0.650 OA
ATOM      2  C   UNK d   0      -2.765   5.735  22.092  0.00  0.00     0.139 C 
ENDROOT
BRANCH   2   3
ATOM      3  O   UNK d   0      -2.768   6.187  20.794  0.00  0.00    -0.776 OA
ATOM      4  H   UNK d   0      -3.464   6.862  20.472  0.00  0.00     0.167 HD
ENDBRANCH   2   3
BRANCH   2   5
ATOM      5  C   UNK d   0      -1.481   5.433  22.785  0.00  0.00     0.115 C 
BRANCH   5   6
ATOM      6  C   UNK d   0      -0.972   6.660  23.491  0.00  0.00     0.052 C 
BRANCH   6   7
ATOM      7  C   UNK d   0       0.231   7.266  22.808  0.00  0.00    -0.020 A 
ATOM      8  C   UNK d   0       0.253   8.274  21.974  0.00  0.00    -0.011 A 
ATOM      9  C   UNK d   0       1.633   8.490  21.573  0.00  0.00     0.067 A 
ATOM     10  C   UNK d   0       2.316   9.394  20.745  0.00  0.00     0.062 C 
ATOM     11  N   UNK d   0       2.384   7.565  22.206  0.00  0.00    -0.248 NA
ATOM     12  C   UNK d   0       3.696   9.623  20.698  0.00  0.00     0.041 A 
ATOM     13  N   UNK d   0       4.737   8.770  20.720  0.00  0.00    -0.355 N 
ATOM     14  C   UNK d   0       4.165  10.950  20.676  0.00  0.00    -0.022 A 
ATOM     15  C   UNK d   0       5.855   9.521  20.721  0.00  0.00     0.042 A 
ATOM     16  H   UNK d   0       4.684   7.659  20.715  0.00  0.00     0.166 HD
ATOM     17  C   UNK d   0       7.212   9.140  20.738  0.00  0.00     0.062 C 
ATOM     18  C   UNK d   0       5.536  10.893  20.694  0.00  0.00    -0.013 A 
ATOM     19  C   UNK d   0       7.830   8.186  21.507  0.00  0.00     0.067 A 
ATOM     20  N   UNK d   0       7.039   7.360  22.197  0.00  0.00    -0.248 NA
ATOM     21  C   UNK d   0       9.202   7.814  21.806  0.00  0.00    -0.011 A 
ATOM     22  C   UNK d   0       7.795   6.476  22.926  0.00  0.00     0.066 A 
ATOM     23  C   UNK d   0       7.098   5.531  23.664  0.00  0.00     0.062 C 
ATOM     24  C   UNK d   0       9.175   6.815  22.640  0.00  0.00    -0.020 A 
ATOM     25  C   UNK d   0       5.712   5.309  23.688  0.00  0.00     0.041 A 
ATOM     26  N   UNK d   0       4.677   6.157  23.681  0.00  0.00    -0.355 N 
ATOM     27  C   UNK d   0       5.242   3.977  23.705  0.00  0.00    -0.022 A 
ATOM     28  C   UNK d   0       3.561   5.411  23.688  0.00  0.00     0.042 A 
ATOM     29  H   UNK d   0       4.732   7.273  23.696  0.00  0.00     0.166 HD
ATOM     30  C   UNK d   0       2.206   5.777  23.681  0.00  0.00     0.062 C 
ATOM     31  C   UNK d   0       3.882   4.033  23.705  0.00  0.00    -0.013 A 
ATOM     32  C   UNK d   0       1.600   6.798  22.965  0.00  0.00     0.066 A 
BRANCH   8  33
ATOM     33  C   UNK d   0      -0.904   9.060  21.506  0.00  0.00     0.151 C 
BRANCH  33  34
ATOM     34  C   UNK d   0      -1.021  10.363  22.185  0.00  0.00     0.143 C 
ATOM     35  O   UNK d   0      -0.931  11.422  21.548  0.00  0.00    -0.650 OA
BRANCH  34  36
ATOM     36  O   UNK d   0      -1.230  10.400  23.544  0.00  0.00    -0.776 OA
ATOM     37  H   UNK d   0      -1.398  11.289  24.035  0.00  0.00     0.167 HD
ENDBRANCH  34  36
ENDBRANCH  33  34
ENDBRANCH   8  33
BRANCH  31  38
ATOM     38  C   UNK d   0       2.942   2.850  23.707  0.00  0.00     0.151 C 
BRANCH  38  39
ATOM     39  C   UNK d   0       2.522   2.469  25.038  0.00  0.00     0.143 C 
ATOM     40  O   UNK d   0       1.340   2.557  25.414  0.00  0.00    -0.650 OA
BRANCH  39  41
ATOM     41  O   UNK d   0       3.466   1.982  25.942  0.00  0.00    -0.776 OA
ATOM     42  H   UNK d   0       4.399   2.404  25.907  0.00  0.00     0.167 HD
ENDBRANCH  39  41
ENDBRANCH  38  39
ENDBRANCH  31  38
BRANCH  27  43
ATOM     43  C   UNK d   0       6.021   2.686  23.723  0.00  0.00     0.052 C 
BRANCH  43  44
ATOM     44  C   UNK d   0       5.587   1.719  22.671  0.00  0.00     0.115 C 
BRANCH  44  45
ATOM     45  C   UNK d   0       5.596   0.373  23.301  0.00  0.00     0.139 C 
ATOM     46  O   UNK d   0       5.661  -0.632  22.551  0.00  0.00    -0.650 OA
BRANCH  45  47
ATOM     47  O   UNK d   0       5.542   0.187  24.666  0.00  0.00    -0.776 OA
ATOM     48  H   UNK d   0       6.322   0.434  25.296  0.00  0.00     0.167 HD
ENDBRANCH  45  47
ENDBRANCH  44  45
ENDBRANCH  43  44
ENDBRANCH  27  43
BRANCH  24  49
ATOM     49  C   UNK d   0      10.346   6.100  23.177  0.00  0.00     0.052 C 
BRANCH  49  50
ATOM     50  C   UNK d   0      10.579   6.482  24.616  0.00  0.00     0.115 C 
BRANCH  50  51
ATOM     51  C   UNK d   0      11.750   7.299  24.905  0.00  0.00     0.139 C 
ATOM     52  O   UNK d   0      12.004   8.360  24.288  0.00  0.00    -0.650 OA
BRANCH  51  53
ATOM     53  O   UNK d   0      12.634   6.904  25.898  0.00  0.00    -0.776 OA
ATOM     54  H   UNK d   0      12.277   6.360  26.664  0.00  0.00     0.167 HD
ENDBRANCH  51  53
ENDBRANCH  50  51
ENDBRANCH  49  50
ENDBRANCH  24  49
BRANCH  21  55
ATOM     55  C   UNK d   0      10.397   8.493  21.223  0.00  0.00     0.151 C 
BRANCH  55  56
ATOM     56  C   UNK d   0      10.514   8.257  19.775  0.00  0.00     0.143 C 
ATOM     57  O   UNK d   0      10.458   9.176  18.935  0.00  0.00    -0.650 OA
BRANCH  56  58
ATOM     58  O   UNK d   0      10.696   6.943  19.344  0.00  0.00    -0.776 OA
ATOM     59  H   UNK d   0       9.823   6.438  19.107  0.00  0.00     0.167 HD
ENDBRANCH  56  58
ENDBRANCH  55  56
ENDBRANCH  21  55
BRANCH  18  60
ATOM     60  C   UNK d   0       6.451  12.092  20.688  0.00  0.00     0.151 C 
BRANCH  60  61
ATOM     61  C   UNK d   0       6.659  12.435  19.273  0.00  0.00     0.143 C 
ATOM     62  O   UNK d   0       7.193  11.737  18.411  0.00  0.00    -0.650 OA
BRANCH  61  63
ATOM     63  O   UNK d   0       6.183  13.711  18.887  0.00  0.00    -0.776 OA
ATOM     64  H   UNK d   0       6.239  14.496  19.511  0.00  0.00     0.167 HD
ENDBRANCH  61  63
ENDBRANCH  60  61
ENDBRANCH  18  60
BRANCH  14  65
ATOM     65  C   UNK d   0       3.424  12.250  20.541  0.00  0.00     0.052 C 
BRANCH  65  66
ATOM     66  C   UNK d   0       2.652  12.608  21.761  0.00  0.00     0.115 C 
BRANCH  66  67
ATOM     67  C   UNK d   0       2.353  13.986  22.035  0.00  0.00     0.139 C 
ATOM     68  O   UNK d   0       2.397  14.393  23.254  0.00  0.00    -0.650 OA
BRANCH  67  69
ATOM     69  O   UNK d   0       2.007  14.982  21.122  0.00  0.00    -0.776 OA
ATOM     70  H   UNK d   0       1.483  15.780  21.508  0.00  0.00     0.167 HD
ENDBRANCH  67  69
ENDBRANCH  66  67
ENDBRANCH  65  66
ENDBRANCH  14  65
ENDBRANCH   6   7
ENDBRANCH   5   6
ENDBRANCH   2   5
TORSDOF 28
ENDMDL
MODEL 3
REMARK VINA RESULT:     -10.3      1.801      5.689
REMARK  28 active torsions:
REMARK  status: ('A' for Active; 'I' for Inactive)
REMARK    1  A    between atoms: C_2  and  O_3 
REMARK    2  A    between atoms: C_2  and  C_4 
REMARK    3  A    between atoms: C_4  and  C_5 
REMARK    4  A    between atoms: C_5  and  C_6 
REMARK    5  A    between atoms: C_7  and  C_8 
REMARK    6  A    between atoms: C_8  and  C_9 
REMARK    7  A    between atoms: C_9  and  O_11 
REMARK    8  A    between atoms: C_28  and  C_29 
REMARK    9  A    between atoms: C_29  and  C_30 
REMARK   10  A    between atoms: C_30  and  O_32 
REMARK   11  A    between atoms: C_33  and  C_34 
REMARK   12  A    between atoms: C_34  and  C_35 
REMARK   13  A    between atoms: C_35  and  C_36 
REMARK   14  A    between atoms: C_36  and  O_38 
REMARK   15  A    between atoms: C_39  and  C_40 
REMARK   16  A    between atoms: C_40  and  C_41 
REMARK   17  A    between atoms: C_41  and  C_42 
REMARK   18  A    between atoms: C_42  and  O_44 
REMARK   19  A    between atoms: C_45  and  C_46 
REMARK   20  A    between atoms: C_46  and  C_47 
REMARK   21  A    between atoms: C_47  and  O_49 
REMARK   22  A    between atoms: C_50  and  C_51 
REMARK   23  A    between atoms: C_51  and  C_52 
REMARK   24  A    between atoms: C_52  and  O_54 
REMARK   25  A    between atoms: C_55  and  C_56 
REMARK   26  A    between atoms: C_56  and  C_57 
REMARK   27  A    between atoms: C_57  and  C_58 
REMARK   28  A    between atoms: C_58  and  O_60 
ROOT
ATOM      1  O   UNK d   0       3.520   0.337  24.068  0.00  0.00    -0.650 OA
ATOM      2  C   UNK d   0       3.086   1.419  24.521  0.00  0.00     0.139 C 
ENDROOT
BRANCH   2   3
ATOM      3  O   UNK d   0       3.697   1.985  25.614  0.00  0.00    -0.776 OA
ATOM      4  H   UNK d   0       4.599   2.458  25.528  0.00  0.00     0.167 HD
ENDBRANCH   2   3
BRANCH   2   5
ATOM      5  C   UNK d   0       1.917   2.085  23.880  0.00  0.00     0.115 C 
BRANCH   5   6
ATOM      6  C   UNK d   0       1.545   3.327  24.643  0.00  0.00     0.052 C 
BRANCH   6   7
ATOM      7  C   UNK d   0       1.668   4.580  23.808  0.00  0.00    -0.020 A 
ATOM      8  C   UNK d   0       0.704   5.260  23.243  0.00  0.00    -0.011 A 
ATOM      9  C   UNK d   0       1.305   6.381  22.539  0.00  0.00     0.067 A 
ATOM     10  C   UNK d   0       0.840   7.464  21.776  0.00  0.00     0.062 C 
ATOM     11  N   UNK d   0       2.639   6.303  22.725  0.00  0.00    -0.248 NA
ATOM     12  C   UNK d   0       1.554   8.609  21.407  0.00  0.00     0.041 A 
ATOM     13  N   UNK d   0       2.814   8.761  20.956  0.00  0.00    -0.355 N 
ATOM     14  C   UNK d   0       0.943   9.868  21.550  0.00  0.00    -0.022 A 
ATOM     15  C   UNK d   0       3.021  10.084  20.818  0.00  0.00     0.042 A 
ATOM     16  H   UNK d   0       3.536   7.948  20.723  0.00  0.00     0.166 HD
ATOM     17  C   UNK d   0       4.159  10.790  20.381  0.00  0.00     0.062 C 
ATOM     18  C   UNK d   0       1.870  10.810  21.181  0.00  0.00    -0.013 A 
ATOM     19  C   UNK d   0       5.474  10.602  20.723  0.00  0.00     0.067 A 
ATOM     20  N   UNK d   0       5.770   9.491  21.403  0.00  0.00    -0.248 NA
ATOM     21  C   UNK d   0       6.715  11.338  20.547  0.00  0.00    -0.011 A 
ATOM     22  C   UNK d   0       7.113   9.449  21.686  0.00  0.00     0.066 A 
ATOM     23  C   UNK d   0       7.565   8.324  22.360  0.00  0.00     0.062 C 
ATOM     24  C   UNK d   0       7.669  10.660  21.117  0.00  0.00    -0.020 A 
ATOM     25  C   UNK d   0       6.834   7.178  22.710  0.00  0.00     0.041 A 
ATOM     26  N   UNK d   0       5.587   7.028  23.172  0.00  0.00    -0.355 N 
ATOM     27  C   UNK d   0       7.447   5.915  22.562  0.00  0.00    -0.022 A 
ATOM     28  C   UNK d   0       5.381   5.710  23.319  0.00  0.00     0.042 A 
ATOM     29  H   UNK d   0       4.866   7.846  23.416  0.00  0.00     0.166 HD
ATOM     30  C   UNK d   0       4.257   4.995  23.761  0.00  0.00     0.062 C 
ATOM     31  C   UNK d   0       6.534   4.980  22.944  0.00  0.00    -0.013 A 
ATOM     32  C   UNK d   0       2.923   5.241  23.480  0.00  0.00     0.066 A 
BRANCH   8  33
ATOM     33  C   UNK d   0      -0.738   4.959  23.292  0.00  0.00     0.151 C 
BRANCH  33  34
ATOM     34  C   UNK d   0      -1.444   5.720  24.339  0.00  0.00     0.143 C 
ATOM     35  O   UNK d   0      -0.848   6.113  25.352  0.00  0.00    -0.650 OA
BRANCH  34  36
ATOM     36  O   UNK d   0      -2.784   5.994  24.188  0.00  0.00    -0.776 OA
ATOM     37  H   UNK d   0      -3.119   6.955  24.039  0.00  0.00     0.167 HD
ENDBRANCH  34  36
ENDBRANCH  33  34
ENDBRANCH   8  33
BRANCH  31  38
ATOM     38  C   UNK d   0       6.738   3.483  22.942  0.00  0.00     0.151 C 
BRANCH  38  39
ATOM     39  C   UNK d   0       6.908   2.937  24.272  0.00  0.00     0.143 C 
ATOM     40  O   UNK d   0       7.516   3.548  25.168  0.00  0.00    -0.650 OA
BRANCH  39  41
ATOM     41  O   UNK d   0       6.377   1.683  24.572  0.00  0.00    -0.776 OA
ATOM     42  H   UNK d   0       5.503   1.669  25.107  0.00  0.00     0.167 HD
ENDBRANCH  39  41
ENDBRANCH  38  39
ENDBRANCH  31  38
BRANCH  27  43
ATOM     43  C   UNK d   0       8.836   5.574  22.083  0.00  0.00     0.052 C 
BRANCH  43  44
ATOM     44  C   UNK d   0       9.914   6.234  22.879  0.00  0.00     0.115 C 
BRANCH  44  45
ATOM     45  C   UNK d   0      10.882   6.794  21.900  0.00  0.00     0.139 C 
ATOM     46  O   UNK d   0      10.759   6.467  20.694  0.00  0.00    -0.650 OA
BRANCH  45  47
ATOM     47  O   UNK d   0      11.896   7.654  22.261  0.00  0.00    -0.776 OA
ATOM     48  H   UNK d   0      12.685   7.369  22.863  0.00  0.00     0.167 HD
ENDBRANCH  45  47
ENDBRANCH  44  45
ENDBRANCH  43  44
ENDBRANCH  27  43
BRANCH  24  49
ATOM     49  C   UNK d   0       9.096  11.024  21.144  0.00  0.00     0.052 C 
BRANCH  49  50
ATOM     50  C   UNK d   0       9.898  10.065  20.301  0.00  0.00     0.115 C 
BRANCH  50  51
ATOM     51  C   UNK d   0       9.508   9.922  18.904  0.00  0.00     0.139 C 
ATOM     52  O   UNK d   0       9.623  10.852  18.072  0.00  0.00    -0.650 OA
BRANCH  51  53
ATOM     53  O   UNK d   0       8.985   8.718  18.458  0.00  0.00    -0.776 OA
ATOM     54  H   UNK d   0       9.005   7.931  19.081  0.00  0.00     0.167 HD
ENDBRANCH  51  53
ENDBRANCH  50  51
ENDBRANCH  49  50
ENDBRANCH  24  49
BRANCH  21  55
ATOM     55  C   UNK d   0       6.818  12.641  19.825  0.00  0.00     0.151 C 
BRANCH  55  56
ATOM     56  C   UNK d   0       6.296  13.759  20.627  0.00  0.00     0.143 C 
ATOM     57  O   UNK d   0       5.089  14.068  20.648  0.00  0.00    -0.650 OA
BRANCH  56  58
ATOM     58  O   UNK d   0       7.206  14.491  21.388  0.00  0.00    -0.776 OA
ATOM     59  H   UNK d   0       6.788  15.023  22.173  0.00  0.00     0.167 HD
ENDBRANCH  56  58
ENDBRANCH  55  56
ENDBRANCH  21  55
BRANCH  18  60
ATOM     60  C   UNK d   0       1.638  12.301  21.190  0.00  0.00     0.151 C 
BRANCH  60  61
ATOM     61  C   UNK d   0       2.280  12.802  22.415  0.00  0.00     0.143 C 
ATOM     62  O   UNK d   0       2.562  12.154  23.423  0.00  0.00    -0.650 OA
BRANCH  61  63
ATOM     63  O   UNK d   0       2.597  14.182  22.408  0.00  0.00    -0.776 OA
ATOM     64  H   UNK d   0       2.022  14.843  21.917  0.00  0.00     0.167 HD
ENDBRANCH  61  63
ENDBRANCH  60  61
ENDBRANCH  18  60
BRANCH  14  65
ATOM     65  C   UNK d   0      -0.468  10.238  21.911  0.00  0.00     0.052 C 
BRANCH  65  66
ATOM     66  C   UNK d   0      -0.731  10.166  23.373  0.00  0.00     0.115 C 
BRANCH  66  67
ATOM     67  C   UNK d   0      -1.751   9.286  23.870  0.00  0.00     0.139 C 
ATOM     68  O   UNK d   0      -2.559   8.745  23.029  0.00  0.00    -0.650 OA
BRANCH  67  69
ATOM     69  O   UNK d   0      -1.994   8.923  25.195  0.00  0.00    -0.776 OA
ATOM     70  H   UNK d   0      -2.637   8.130  25.331  0.00  0.00     0.167 HD
ENDBRANCH  67  69
ENDBRANCH  66  67
ENDBRANCH  65  66
ENDBRANCH  14  65
ENDBRANCH   6   7
ENDBRANCH   5   6
ENDBRANCH   2   5
TORSDOF 28
ENDMDL
MODEL 4
REMARK VINA RESULT:     -10.1      1.692      7.427
REMARK  28 active torsions:
REMARK  status: ('A' for Active; 'I' for Inactive)
REMARK    1  A    between atoms: C_2  and  O_3 
REMARK    2  A    between atoms: C_2  and  C_4 
REMARK    3  A    between atoms: C_4  and  C_5 
REMARK    4  A    between atoms: C_5  and  C_6 
REMARK    5  A    between atoms: C_7  and  C_8 
REMARK    6  A    between atoms: C_8  and  C_9 
REMARK    7  A    between atoms: C_9  and  O_11 
REMARK    8  A    between atoms: C_28  and  C_29 
REMARK    9  A    between atoms: C_29  and  C_30 
REMARK   10  A    between atoms: C_30  and  O_32 
REMARK   11  A    between atoms: C_33  and  C_34 
REMARK   12  A    between atoms: C_34  and  C_35 
REMARK   13  A    between atoms: C_35  and  C_36 
REMARK   14  A    between atoms: C_36  and  O_38 
REMARK   15  A    between atoms: C_39  and  C_40 
REMARK   16  A    between atoms: C_40  and  C_41 
REMARK   17  A    between atoms: C_41  and  C_42 
REMARK   18  A    between atoms: C_42  and  O_44 
REMARK   19  A    between atoms: C_45  and  C_46 
REMARK   20  A    between atoms: C_46  and  C_47 
REMARK   21  A    between atoms: C_47  and  O_49 
REMARK   22  A    between atoms: C_50  and  C_51 
REMARK   23  A    between atoms: C_51  and  C_52 
REMARK   24  A    between atoms: C_52  and  O_54 
REMARK   25  A    between atoms: C_55  and  C_56 
REMARK   26  A    between atoms: C_56  and  C_57 
REMARK   27  A    between atoms: C_57  and  C_58 
REMARK   28  A    between atoms: C_58  and  O_60 
ROOT
ATOM      1  O   UNK d   0       1.148  15.055  19.493  0.00  0.00    -0.650 OA
ATOM      2  C   UNK d   0       2.115  14.850  20.260  0.00  0.00     0.139 C 
ENDROOT
BRANCH   2   3
ATOM      3  O   UNK d   0       3.278  15.560  20.081  0.00  0.00    -0.776 OA
ATOM      4  H   UNK d   0       4.184  15.160  20.336  0.00  0.00     0.167 HD
ENDBRANCH   2   3
BRANCH   2   5
ATOM      5  C   UNK d   0       2.002  13.845  21.355  0.00  0.00     0.115 C 
BRANCH   5   6
ATOM      6  C   UNK d   0       1.163  12.681  20.904  0.00  0.00     0.052 C 
BRANCH   6   7
ATOM      7  C   UNK d   0       1.494  11.406  21.643  0.00  0.00    -0.020 A 
ATOM      8  C   UNK d   0       0.723  10.732  22.458  0.00  0.00    -0.011 A 
ATOM      9  C   UNK d   0       1.474   9.582  22.933  0.00  0.00     0.067 A 
ATOM     10  C   UNK d   0       1.227   8.492  23.781  0.00  0.00     0.062 C 
ATOM     11  N   UNK d   0       2.695   9.637  22.361  0.00  0.00    -0.248 NA
ATOM     12  C   UNK d   0       1.988   7.323  23.902  0.00  0.00     0.041 A 
ATOM     13  N   UNK d   0       3.320   7.134  23.956  0.00  0.00    -0.355 N 
ATOM     14  C   UNK d   0       1.327   6.081  23.926  0.00  0.00    -0.022 A 
ATOM     15  C   UNK d   0       3.522   5.804  24.004  0.00  0.00     0.042 A 
ATOM     16  H   UNK d   0       4.101   7.926  23.978  0.00  0.00     0.166 HD
ATOM     17  C   UNK d   0       4.720   5.064  24.071  0.00  0.00     0.062 C 
ATOM     18  C   UNK d   0       2.296   5.111  23.987  0.00  0.00    -0.013 A 
ATOM     19  C   UNK d   0       5.879   5.232  23.358  0.00  0.00     0.067 A 
ATOM     20  N   UNK d   0       5.989   6.353  22.640  0.00  0.00    -0.248 NA
ATOM     21  C   UNK d   0       7.095   4.466  23.145  0.00  0.00    -0.011 A 
ATOM     22  C   UNK d   0       7.189   6.374  21.971  0.00  0.00     0.066 A 
ATOM     23  C   UNK d   0       7.452   7.505  21.213  0.00  0.00     0.062 C 
ATOM     24  C   UNK d   0       7.856   5.138  22.329  0.00  0.00    -0.020 A 
ATOM     25  C   UNK d   0       6.681   8.674  21.115  0.00  0.00     0.041 A 
ATOM     26  N   UNK d   0       5.357   8.861  21.047  0.00  0.00    -0.355 N 
ATOM     27  C   UNK d   0       7.344   9.920  21.096  0.00  0.00    -0.022 A 
ATOM     28  C   UNK d   0       5.153  10.187  20.989  0.00  0.00     0.042 A 
ATOM     29  H   UNK d   0       4.574   8.064  21.013  0.00  0.00     0.166 HD
ATOM     30  C   UNK d   0       3.969  10.936  20.913  0.00  0.00     0.062 C 
ATOM     31  C   UNK d   0       6.385  10.883  21.017  0.00  0.00    -0.013 A 
ATOM     32  C   UNK d   0       2.771  10.711  21.573  0.00  0.00     0.066 A 
BRANCH   8  33
ATOM     33  C   UNK d   0      -0.661  11.065  22.844  0.00  0.00     0.151 C 
BRANCH  33  34
ATOM     34  C   UNK d   0      -1.627  10.020  22.460  0.00  0.00     0.143 C 
ATOM     35  O   UNK d   0      -1.987   9.888  21.281  0.00  0.00    -0.650 OA
BRANCH  34  36
ATOM     36  O   UNK d   0      -2.135   9.182  23.425  0.00  0.00    -0.776 OA
ATOM     37  H   UNK d   0      -2.309   8.186  23.231  0.00  0.00     0.167 HD
ENDBRANCH  34  36
ENDBRANCH  33  34
ENDBRANCH   8  33
BRANCH  31  38
ATOM     38  C   UNK d   0       6.620  12.375  20.984  0.00  0.00     0.151 C 
BRANCH  38  39
ATOM     39  C   UNK d   0       6.321  12.962  19.696  0.00  0.00     0.143 C 
ATOM     40  O   UNK d   0       5.865  14.113  19.579  0.00  0.00    -0.650 OA
BRANCH  39  41
ATOM     41  O   UNK d   0       6.547  12.223  18.535  0.00  0.00    -0.776 OA
ATOM     42  H   UNK d   0       6.027  12.506  17.699  0.00  0.00     0.167 HD
ENDBRANCH  39  41
ENDBRANCH  38  39
ENDBRANCH  31  38
BRANCH  27  43
ATOM     43  C   UNK d   0       8.821  10.221  21.146  0.00  0.00     0.052 C 
BRANCH  43  44
ATOM     44  C   UNK d   0       9.352  10.790  19.871  0.00  0.00     0.115 C 
BRANCH  44  45
ATOM     45  C   UNK d   0       9.814   9.640  19.052  0.00  0.00     0.139 C 
ATOM     46  O   UNK d   0       9.019   9.156  18.209  0.00  0.00    -0.650 OA
BRANCH  45  47
ATOM     47  O   UNK d   0      11.072   9.091  19.177  0.00  0.00    -0.776 OA
ATOM     48  H   UNK d   0      11.935   9.607  18.939  0.00  0.00     0.167 HD
ENDBRANCH  45  47
ENDBRANCH  44  45
ENDBRANCH  43  44
ENDBRANCH  27  43
BRANCH  24  49
ATOM     49  C   UNK d   0       9.200   4.745  21.874  0.00  0.00     0.052 C 
BRANCH  49  50
ATOM     50  C   UNK d   0      10.230   5.728  22.370  0.00  0.00     0.115 C 
BRANCH  50  51
ATOM     51  C   UNK d   0      10.880   6.570  21.374  0.00  0.00     0.139 C 
ATOM     52  O   UNK d   0      10.839   6.318  20.146  0.00  0.00    -0.650 OA
BRANCH  51  53
ATOM     53  O   UNK d   0      11.578   7.697  21.778  0.00  0.00    -0.776 OA
ATOM     54  H   UNK d   0      11.277   8.169  22.613  0.00  0.00     0.167 HD
ENDBRANCH  51  53
ENDBRANCH  50  51
ENDBRANCH  49  50
ENDBRANCH  24  49
BRANCH  21  55
ATOM     55  C   UNK d   0       7.372   3.145  23.782  0.00  0.00     0.151 C 
BRANCH  55  56
ATOM     56  C   UNK d   0       6.361   2.138  23.425  0.00  0.00     0.143 C 
ATOM     57  O   UNK d   0       6.018   1.912  22.248  0.00  0.00    -0.650 OA
BRANCH  56  58
ATOM     58  O   UNK d   0       5.771   1.415  24.461  0.00  0.00    -0.776 OA
ATOM     59  H   UNK d   0       6.131   0.452  24.581  0.00  0.00     0.167 HD
ENDBRANCH  56  58
ENDBRANCH  55  56
ENDBRANCH  21  55
BRANCH  18  60
ATOM     60  C   UNK d   0       2.031   3.626  24.022  0.00  0.00     0.151 C 
BRANCH  60  61
ATOM     61  C   UNK d   0       2.149   3.228  25.433  0.00  0.00     0.143 C 
ATOM     62  O   UNK d   0       1.419   3.569  26.364  0.00  0.00    -0.650 OA
BRANCH  61  63
ATOM     63  O   UNK d   0       3.228   2.359  25.726  0.00  0.00    -0.776 OA
ATOM     64  H   UNK d   0       3.535   2.214  26.671  0.00  0.00     0.167 HD
ENDBRANCH  61  63
ENDBRANCH  60  61
ENDBRANCH  18  60
BRANCH  14  65
ATOM     65  C   UNK d   0      -0.136   5.750  23.993  0.00  0.00     0.052 C 
BRANCH  65  66
ATOM     66  C   UNK d   0      -0.711   5.381  22.672  0.00  0.00     0.115 C 
BRANCH  66  67
ATOM     67  C   UNK d   0      -1.164   6.411  21.780  0.00  0.00     0.139 C 
ATOM     68  O   UNK d   0      -0.291   7.050  21.087  0.00  0.00    -0.650 OA
BRANCH  67  69
ATOM     69  O   UNK d   0      -2.476   6.829  21.556  0.00  0.00    -0.776 OA
ATOM     70  H   UNK d   0      -2.768   7.677  22.062  0.00  0.00     0.167 HD
ENDBRANCH  67  69
ENDBRANCH  66  67
ENDBRANCH  65  66
ENDBRANCH  14  65
ENDBRANCH   6   7
ENDBRANCH   5   6
ENDBRANCH   2   5
TORSDOF 28
ENDMDL
MODEL 5
REMARK VINA RESULT:     -10.1      1.866      8.021
REMARK  28 active torsions:
REMARK  status: ('A' for Active; 'I' for Inactive)
REMARK    1  A    between atoms: C_2  and  O_3 
REMARK    2  A    between atoms: C_2  and  C_4 
REMARK    3  A    between atoms: C_4  and  C_5 
REMARK    4  A    between atoms: C_5  and  C_6 
REMARK    5  A    between atoms: C_7  and  C_8 
REMARK    6  A    between atoms: C_8  and  C_9 
REMARK    7  A    between atoms: C_9  and  O_11 
REMARK    8  A    between atoms: C_28  and  C_29 
REMARK    9  A    between atoms: C_29  and  C_30 
REMARK   10  A    between atoms: C_30  and  O_32 
REMARK   11  A    between atoms: C_33  and  C_34 
REMARK   12  A    between atoms: C_34  and  C_35 
REMARK   13  A    between atoms: C_35  and  C_36 
REMARK   14  A    between atoms: C_36  and  O_38 
REMARK   15  A    between atoms: C_39  and  C_40 
REMARK   16  A    between atoms: C_40  and  C_41 
REMARK   17  A    between atoms: C_41  and  C_42 
REMARK   18  A    between atoms: C_42  and  O_44 
REMARK   19  A    between atoms: C_45  and  C_46 
REMARK   20  A    between atoms: C_46  and  C_47 
REMARK   21  A    between atoms: C_47  and  O_49 
REMARK   22  A    between atoms: C_50  and  C_51 
REMARK   23  A    between atoms: C_51  and  C_52 
REMARK   24  A    between atoms: C_52  and  O_54 
REMARK   25  A    between atoms: C_55  and  C_56 
REMARK   26  A    between atoms: C_56  and  C_57 
REMARK   27  A    between atoms: C_57  and  C_58 
REMARK   28  A    between atoms: C_58  and  O_60 
ROOT
ATOM      1  O   UNK d   0      -0.404   3.605  26.213  0.00  0.00    -0.650 OA
ATOM      2  C   UNK d   0      -0.558   4.665  25.567  0.00  0.00     0.139 C 
ENDROOT
BRANCH   2   3
ATOM      3  O   UNK d   0      -0.311   5.870  26.180  0.00  0.00    -0.776 OA
ATOM      4  H   UNK d   0      -0.594   6.751  25.746  0.00  0.00     0.167 HD
ENDBRANCH   2   3
BRANCH   2   5
ATOM      5  C   UNK d   0      -1.007   4.617  24.147  0.00  0.00     0.115 C 
BRANCH   5   6
ATOM      6  C   UNK d   0      -0.043   3.804  23.326  0.00  0.00     0.052 C 
BRANCH   6   7
ATOM      7  C   UNK d   0       1.357   4.367  23.348  0.00  0.00    -0.020 A 
ATOM      8  C   UNK d   0       2.432   3.815  23.851  0.00  0.00    -0.011 A 
ATOM      9  C   UNK d   0       3.541   4.732  23.646  0.00  0.00     0.067 A 
ATOM     10  C   UNK d   0       4.917   4.734  23.921  0.00  0.00     0.062 C 
ATOM     11  N   UNK d   0       3.050   5.820  23.016  0.00  0.00    -0.248 NA
ATOM     12  C   UNK d   0       5.885   5.597  23.395  0.00  0.00     0.041 A 
ATOM     13  N   UNK d   0       5.868   6.928  23.189  0.00  0.00    -0.355 N 
ATOM     14  C   UNK d   0       7.096   5.057  22.927  0.00  0.00    -0.022 A 
ATOM     15  C   UNK d   0       7.034   7.244  22.594  0.00  0.00     0.042 A 
ATOM     16  H   UNK d   0       5.056   7.632  23.475  0.00  0.00     0.166 HD
ATOM     17  C   UNK d   0       7.531   8.490  22.164  0.00  0.00     0.062 C 
ATOM     18  C   UNK d   0       7.830   6.097  22.413  0.00  0.00    -0.013 A 
ATOM     19  C   UNK d   0       6.887   9.482  21.469  0.00  0.00     0.067 A 
ATOM     20  N   UNK d   0       5.563   9.368  21.339  0.00  0.00    -0.248 NA
ATOM     21  C   UNK d   0       7.281  10.699  20.778  0.00  0.00    -0.011 A 
ATOM     22  C   UNK d   0       5.063  10.420  20.612  0.00  0.00     0.066 A 
ATOM     23  C   UNK d   0       3.688  10.447  20.432  0.00  0.00     0.062 C 
ATOM     24  C   UNK d   0       6.210  11.240  20.275  0.00  0.00    -0.020 A 
ATOM     25  C   UNK d   0       2.731   9.577  20.980  0.00  0.00     0.041 A 
ATOM     26  N   UNK d   0       2.742   8.253  21.171  0.00  0.00    -0.355 N 
ATOM     27  C   UNK d   0       1.518  10.122  21.454  0.00  0.00    -0.022 A 
ATOM     28  C   UNK d   0       1.577   7.934  21.756  0.00  0.00     0.042 A 
ATOM     29  H   UNK d   0       3.554   7.545  20.873  0.00  0.00     0.166 HD
ATOM     30  C   UNK d   0       1.065   6.697  22.181  0.00  0.00     0.062 C 
ATOM     31  C   UNK d   0       0.781   9.089  21.947  0.00  0.00    -0.013 A 
ATOM     32  C   UNK d   0       1.742   5.663  22.807  0.00  0.00     0.066 A 
BRANCH   8  33
ATOM     33  C   UNK d   0       2.524   2.502  24.516  0.00  0.00     0.151 C 
BRANCH  33  34
ATOM     34  C   UNK d   0       2.932   1.425  23.597  0.00  0.00     0.143 C 
ATOM     35  O   UNK d   0       2.970   0.245  23.976  0.00  0.00    -0.650 OA
BRANCH  34  36
ATOM     36  O   UNK d   0       3.276   1.736  22.302  0.00  0.00    -0.776 OA
ATOM     37  H   UNK d   0       3.901   1.129  21.754  0.00  0.00     0.167 HD
ENDBRANCH  34  36
ENDBRANCH  33  34
ENDBRANCH   8  33
BRANCH  31  38
ATOM     38  C   UNK d   0      -0.589   9.191  22.575  0.00  0.00     0.151 C 
BRANCH  38  39
ATOM     39  C   UNK d   0      -0.566   8.991  24.008  0.00  0.00     0.143 C 
ATOM     40  O   UNK d   0      -1.320   8.184  24.580  0.00  0.00    -0.650 OA
BRANCH  39  41
ATOM     41  O   UNK d   0       0.327   9.724  24.789  0.00  0.00    -0.776 OA
ATOM     42  H   UNK d   0       0.734  10.562  24.362  0.00  0.00     0.167 HD
ENDBRANCH  39  41
ENDBRANCH  38  39
ENDBRANCH  31  38
BRANCH  27  43
ATOM     43  C   UNK d   0       1.044  11.553  21.452  0.00  0.00     0.052 C 
BRANCH  43  44
ATOM     44  C   UNK d   0       1.673  12.385  22.522  0.00  0.00     0.115 C 
BRANCH  44  45
ATOM     45  C   UNK d   0       2.039  13.681  21.892  0.00  0.00     0.139 C 
ATOM     46  O   UNK d   0       1.524  13.966  20.783  0.00  0.00    -0.650 OA
BRANCH  45  47
ATOM     47  O   UNK d   0       2.910  14.575  22.476  0.00  0.00    -0.776 OA
ATOM     48  H   UNK d   0       3.597  14.300  23.196  0.00  0.00     0.167 HD
ENDBRANCH  45  47
ENDBRANCH  44  45
ENDBRANCH  43  44
ENDBRANCH  27  43
BRANCH  24  49
ATOM     49  C   UNK d   0       6.147  12.507  19.526  0.00  0.00     0.052 C 
BRANCH  49  50
ATOM     50  C   UNK d   0       5.618  13.611  20.406  0.00  0.00     0.115 C 
BRANCH  50  51
ATOM     51  C   UNK d   0       5.260  14.865  19.757  0.00  0.00     0.139 C 
ATOM     52  O   UNK d   0       4.370  15.627  20.203  0.00  0.00    -0.650 OA
BRANCH  51  53
ATOM     53  O   UNK d   0       5.915  15.248  18.597  0.00  0.00    -0.776 OA
ATOM     54  H   UNK d   0       6.726  15.835  18.681  0.00  0.00     0.167 HD
ENDBRANCH  51  53
ENDBRANCH  50  51
ENDBRANCH  49  50
ENDBRANCH  24  49
BRANCH  21  55
ATOM     55  C   UNK d   0       8.687  11.194  20.696  0.00  0.00     0.151 C 
BRANCH  55  56
ATOM     56  C   UNK d   0       8.981  12.193  21.735  0.00  0.00     0.143 C 
ATOM     57  O   UNK d   0       8.907  13.421  21.530  0.00  0.00    -0.650 OA
BRANCH  56  58
ATOM     58  O   UNK d   0       9.356  11.729  22.994  0.00  0.00    -0.776 OA
ATOM     59  H   UNK d   0       8.640  11.849  23.734  0.00  0.00     0.167 HD
ENDBRANCH  56  58
ENDBRANCH  55  56
ENDBRANCH  21  55
BRANCH  18  60
ATOM     60  C   UNK d   0       9.200   5.966  21.794  0.00  0.00     0.151 C 
BRANCH  60  61
ATOM     61  C   UNK d   0      10.156   6.347  22.845  0.00  0.00     0.143 C 
ATOM     62  O   UNK d   0      10.047   6.148  24.055  0.00  0.00    -0.650 OA
BRANCH  61  63
ATOM     63  O   UNK d   0      11.319   7.012  22.388  0.00  0.00    -0.776 OA
ATOM     64  H   UNK d   0      12.071   6.504  21.957  0.00  0.00     0.167 HD
ENDBRANCH  61  63
ENDBRANCH  60  61
ENDBRANCH  18  60
BRANCH  14  65
ATOM     65  C   UNK d   0       7.648   3.662  23.017  0.00  0.00     0.052 C 
BRANCH  65  66
ATOM     66  C   UNK d   0       7.055   2.873  24.129  0.00  0.00     0.115 C 
BRANCH  66  67
ATOM     67  C   UNK d   0       6.451   1.599  23.855  0.00  0.00     0.139 C 
ATOM     68  O   UNK d   0       6.199   1.290  22.633  0.00  0.00    -0.650 OA
BRANCH  67  69
ATOM     69  O   UNK d   0       6.085   0.613  24.771  0.00  0.00    -0.776 OA
ATOM     70  H   UNK d   0       5.089   0.592  25.033  0.00  0.00     0.167 HD
ENDBRANCH  67  69
ENDBRANCH  66  67
ENDBRANCH  65  66
ENDBRANCH  14  65
ENDBRANCH   6   7
ENDBRANCH   5   6
ENDBRANCH   2   5
TORSDOF 28
ENDMDL
MODEL 6
REMARK VINA RESULT:      -9.9      1.989     10.365
REMARK  28 active torsions:
REMARK  status: ('A' for Active; 'I' for Inactive)
REMARK    1  A    between atoms: C_2  and  O_3 
REMARK    2  A    between atoms: C_2  and  C_4 
REMARK    3  A    between atoms: C_4  and  C_5 
REMARK    4  A    between atoms: C_5  and  C_6 
REMARK    5  A    between atoms: C_7  and  C_8 
REMARK    6  A    between atoms: C_8  and  C_9 
REMARK    7  A    between atoms: C_9  and  O_11 
REMARK    8  A    between atoms: C_28  and  C_29 
REMARK    9  A    between atoms: C_29  and  C_30 
REMARK   10  A    between atoms: C_30  and  O_32 
REMARK   11  A    between atoms: C_33  and  C_34 
REMARK   12  A    between atoms: C_34  and  C_35 
REMARK   13  A    between atoms: C_35  and  C_36 
REMARK   14  A    between atoms: C_36  and  O_38 
REMARK   15  A    between atoms: C_39  and  C_40 
REMARK   16  A    between atoms: C_40  and  C_41 
REMARK   17  A    between atoms: C_41  and  C_42 
REMARK   18  A    between atoms: C_42  and  O_44 
REMARK   19  A    between atoms: C_45  and  C_46 
REMARK   20  A    between atoms: C_46  and  C_47 
REMARK   21  A    between atoms: C_47  and  O_49 
REMARK   22  A    between atoms: C_50  and  C_51 
REMARK   23  A    between atoms: C_51  and  C_52 
REMARK   24  A    between atoms: C_52  and  O_54 
REMARK   25  A    between atoms: C_55  and  C_56 
REMARK   26  A    between atoms: C_56  and  C_57 
REMARK   27  A    between atoms: C_57  and  C_58 
REMARK   28  A    between atoms: C_58  and  O_60 
ROOT
ATOM      1  O   UNK d   0      10.504   7.316  22.592  0.00  0.00    -0.650 OA
ATOM      2  C   UNK d   0      10.104   6.414  21.823  0.00  0.00     0.139 C 
ENDROOT
BRANCH   2   3
ATOM      3  O   UNK d   0      10.137   6.622  20.465  0.00  0.00    -0.776 OA
ATOM      4  H   UNK d   0       9.455   7.231  20.008  0.00  0.00     0.167 HD
ENDBRANCH   2   3
BRANCH   2   5
ATOM      5  C   UNK d   0       9.596   5.127  22.378  0.00  0.00     0.115 C 
BRANCH   5   6
ATOM      6  C   UNK d   0       8.927   5.365  23.705  0.00  0.00     0.052 C 
BRANCH   6   7
ATOM      7  C   UNK d   0       7.421   5.417  23.595  0.00  0.00    -0.020 A 
ATOM      8  C   UNK d   0       6.571   4.446  23.810  0.00  0.00    -0.011 A 
ATOM      9  C   UNK d   0       5.234   4.964  23.572  0.00  0.00     0.067 A 
ATOM     10  C   UNK d   0       3.926   4.462  23.645  0.00  0.00     0.062 C 
ATOM     11  N   UNK d   0       5.365   6.258  23.210  0.00  0.00    -0.248 NA
ATOM     12  C   UNK d   0       2.735   5.196  23.647  0.00  0.00     0.041 A 
ATOM     13  N   UNK d   0       2.346   6.256  22.913  0.00  0.00    -0.355 N 
ATOM     14  C   UNK d   0       1.737   4.873  24.584  0.00  0.00    -0.022 A 
ATOM     15  C   UNK d   0       1.131   6.618  23.365  0.00  0.00     0.042 A 
ATOM     16  H   UNK d   0       2.911   6.727  22.078  0.00  0.00     0.166 HD
ATOM     17  C   UNK d   0       0.274   7.658  22.951  0.00  0.00     0.062 C 
ATOM     18  C   UNK d   0       0.716   5.774  24.413  0.00  0.00    -0.013 A 
ATOM     19  C   UNK d   0       0.578   8.965  22.669  0.00  0.00     0.067 A 
ATOM     20  N   UNK d   0       1.873   9.278  22.575  0.00  0.00    -0.248 NA
ATOM     21  C   UNK d   0      -0.175  10.187  22.443  0.00  0.00    -0.011 A 
ATOM     22  C   UNK d   0       2.022  10.616  22.306  0.00  0.00     0.066 A 
ATOM     23  C   UNK d   0       3.322  11.072  22.145  0.00  0.00     0.062 C 
ATOM     24  C   UNK d   0       0.676  11.151  22.235  0.00  0.00    -0.020 A 
ATOM     25  C   UNK d   0       4.504  10.315  22.134  0.00  0.00     0.041 A 
ATOM     26  N   UNK d   0       4.897   9.272  22.873  0.00  0.00    -0.355 N 
ATOM     27  C   UNK d   0       5.503  10.638  21.190  0.00  0.00    -0.022 A 
ATOM     28  C   UNK d   0       6.112   8.914  22.430  0.00  0.00     0.042 A 
ATOM     29  H   UNK d   0       4.332   8.806  23.719  0.00  0.00     0.166 HD
ATOM     30  C   UNK d   0       6.979   7.889  22.839  0.00  0.00     0.062 C 
ATOM     31  C   UNK d   0       6.524   9.756  21.370  0.00  0.00    -0.013 A 
ATOM     32  C   UNK d   0       6.656   6.592  23.205  0.00  0.00     0.066 A 
BRANCH   8  33
ATOM     33  C   UNK d   0       6.890   3.064  24.216  0.00  0.00     0.151 C 
BRANCH  33  34
ATOM     34  C   UNK d   0       6.367   2.058  23.274  0.00  0.00     0.143 C 
ATOM     35  O   UNK d   0       6.258   2.313  22.066  0.00  0.00    -0.650 OA
BRANCH  34  36
ATOM     36  O   UNK d   0       5.995   0.821  23.746  0.00  0.00    -0.776 OA
ATOM     37  H   UNK d   0       5.010   0.522  23.743  0.00  0.00     0.167 HD
ENDBRANCH  34  36
ENDBRANCH  33  34
ENDBRANCH   8  33
BRANCH  31  38
ATOM     38  C   UNK d   0       7.808   9.705  20.576  0.00  0.00     0.151 C 
BRANCH  38  39
ATOM     39  C   UNK d   0       7.673   8.971  19.336  0.00  0.00     0.143 C 
ATOM     40  O   UNK d   0       6.569   8.609  18.894  0.00  0.00    -0.650 OA
BRANCH  39  41
ATOM     41  O   UNK d   0       8.814   8.651  18.600  0.00  0.00    -0.776 OA
ATOM     42  H   UNK d   0       8.690   8.517  17.592  0.00  0.00     0.167 HD
ENDBRANCH  39  41
ENDBRANCH  38  39
ENDBRANCH  31  38
BRANCH  27  43
ATOM     43  C   UNK d   0       5.522  11.730  20.150  0.00  0.00     0.052 C 
BRANCH  43  44
ATOM     44  C   UNK d   0       6.372  12.897  20.534  0.00  0.00     0.115 C 
BRANCH  44  45
ATOM     45  C   UNK d   0       5.544  14.113  20.323  0.00  0.00     0.139 C 
ATOM     46  O   UNK d   0       5.595  15.021  21.189  0.00  0.00    -0.650 OA
BRANCH  45  47
ATOM     47  O   UNK d   0       4.734  14.284  19.222  0.00  0.00    -0.776 OA
ATOM     48  H   UNK d   0       5.095  14.274  18.254  0.00  0.00     0.167 HD
ENDBRANCH  45  47
ENDBRANCH  44  45
ENDBRANCH  43  44
ENDBRANCH  27  43
BRANCH  24  49
ATOM     49  C   UNK d   0       0.343  12.552  21.926  0.00  0.00     0.052 C 
BRANCH  49  50
ATOM     50  C   UNK d   0       1.423  13.173  21.078  0.00  0.00     0.115 C 
BRANCH  50  51
ATOM     51  C   UNK d   0       2.083  14.359  21.607  0.00  0.00     0.139 C 
ATOM     52  O   UNK d   0       2.358  14.494  22.823  0.00  0.00    -0.650 OA
BRANCH  51  53
ATOM     53  O   UNK d   0       2.429  15.392  20.750  0.00  0.00    -0.776 OA
ATOM     54  H   UNK d   0       3.182  15.241  20.102  0.00  0.00     0.167 HD
ENDBRANCH  51  53
ENDBRANCH  50  51
ENDBRANCH  49  50
ENDBRANCH  24  49
BRANCH  21  55
ATOM     55  C   UNK d   0      -1.665  10.264  22.454  0.00  0.00     0.151 C 
BRANCH  55  56
ATOM     56  C   UNK d   0      -2.274   9.294  21.530  0.00  0.00     0.143 C 
ATOM     57  O   UNK d   0      -2.004   9.260  20.313  0.00  0.00    -0.650 OA
BRANCH  56  58
ATOM     58  O   UNK d   0      -3.189   8.383  22.055  0.00  0.00    -0.776 OA
ATOM     59  H   UNK d   0      -3.970   8.807  22.587  0.00  0.00     0.167 HD
ENDBRANCH  56  58
ENDBRANCH  55  56
ENDBRANCH  21  55
BRANCH  18  60
ATOM     60  C   UNK d   0      -0.559   5.799  25.220  0.00  0.00     0.151 C 
BRANCH  60  61
ATOM     61  C   UNK d   0      -1.587   5.182  24.369  0.00  0.00     0.143 C 
ATOM     62  O   UNK d   0      -1.678   3.994  24.058  0.00  0.00    -0.650 OA
BRANCH  61  63
ATOM     63  O   UNK d   0      -2.568   6.071  23.867  0.00  0.00    -0.776 OA
ATOM     64  H   UNK d   0      -3.194   6.555  24.486  0.00  0.00     0.167 HD
ENDBRANCH  61  63
ENDBRANCH  60  61
ENDBRANCH  18  60
BRANCH  14  65
ATOM     65  C   UNK d   0       1.634   3.728  25.552  0.00  0.00     0.052 C 
BRANCH  65  66
ATOM     66  C   UNK d   0       1.332   2.431  24.888  0.00  0.00     0.115 C 
BRANCH  66  67
ATOM     67  C   UNK d   0       2.224   1.319  25.061  0.00  0.00     0.139 C 
ATOM     68  O   UNK d   0       1.755   0.130  24.923  0.00  0.00    -0.650 OA
BRANCH  67  69
ATOM     69  O   UNK d   0       3.582   1.355  25.373  0.00  0.00    -0.776 OA
ATOM     70  H   UNK d   0       4.079   2.220  25.114  0.00  0.00     0.167 HD
ENDBRANCH  67  69
ENDBRANCH  66  67
ENDBRANCH  65  66
ENDBRANCH  14  65
ENDBRANCH   6   7
ENDBRANCH   5   6
ENDBRANCH   2   5
TORSDOF 28
ENDMDL
MODEL 7
REMARK VINA RESULT:      -9.9      1.710      7.600
REMARK  28 active torsions:
REMARK  status: ('A' for Active; 'I' for Inactive)
REMARK    1  A    between atoms: C_2  and  O_3 
REMARK    2  A    between atoms: C_2  and  C_4 
REMARK    3  A    between atoms: C_4  and  C_5 
REMARK    4  A    between atoms: C_5  and  C_6 
REMARK    5  A    between atoms: C_7  and  C_8 
REMARK    6  A    between atoms: C_8  and  C_9 
REMARK    7  A    between atoms: C_9  and  O_11 
REMARK    8  A    between atoms: C_28  and  C_29 
REMARK    9  A    between atoms: C_29  and  C_30 
REMARK   10  A    between atoms: C_30  and  O_32 
REMARK   11  A    between atoms: C_33  and  C_34 
REMARK   12  A    between atoms: C_34  and  C_35 
REMARK   13  A    between atoms: C_35  and  C_36 
REMARK   14  A    between atoms: C_36  and  O_38 
REMARK   15  A    between atoms: C_39  and  C_40 
REMARK   16  A    between atoms: C_40  and  C_41 
REMARK   17  A    between atoms: C_41  and  C_42 
REMARK   18  A    between atoms: C_42  and  O_44 
REMARK   19  A    between atoms: C_45  and  C_46 
REMARK   20  A    between atoms: C_46  and  C_47 
REMARK   21  A    between atoms: C_47  and  O_49 
REMARK   22  A    between atoms: C_50  and  C_51 
REMARK   23  A    between atoms: C_51  and  C_52 
REMARK   24  A    between atoms: C_52  and  O_54 
REMARK   25  A    between atoms: C_55  and  C_56 
REMARK   26  A    between atoms: C_56  and  C_57 
REMARK   27  A    between atoms: C_57  and  C_58 
REMARK   28  A    between atoms: C_58  and  O_60 
ROOT
ATOM      1  O   UNK d   0      -1.240  11.140  22.006  0.00  0.00    -0.650 OA
ATOM      2  C   UNK d   0      -1.409  10.094  22.671  0.00  0.00     0.139 C 
ENDROOT
BRANCH   2   3
ATOM      3  O   UNK d   0      -0.800   9.968  23.896  0.00  0.00    -0.776 OA
ATOM      4  H   UNK d   0      -0.620  10.786  24.482  0.00  0.00     0.167 HD
ENDBRANCH   2   3
BRANCH   2   5
ATOM      5  C   UNK d   0      -2.264   8.997  22.134  0.00  0.00     0.115 C 
BRANCH   5   6
ATOM      6  C   UNK d   0      -1.511   8.217  21.092  0.00  0.00     0.052 C 
BRANCH   6   7
ATOM      7  C   UNK d   0      -0.310   7.498  21.659  0.00  0.00    -0.020 A 
ATOM      8  C   UNK d   0      -0.300   6.401  22.373  0.00  0.00    -0.011 A 
ATOM      9  C   UNK d   0       1.083   6.095  22.698  0.00  0.00     0.067 A 
ATOM     10  C   UNK d   0       1.759   5.080  23.394  0.00  0.00     0.062 C 
ATOM     11  N   UNK d   0       1.848   7.060  22.147  0.00  0.00    -0.248 NA
ATOM     12  C   UNK d   0       3.129   4.802  23.366  0.00  0.00     0.041 A 
ATOM     13  N   UNK d   0       4.201   5.617  23.404  0.00  0.00    -0.355 N 
ATOM     14  C   UNK d   0       3.550   3.467  23.222  0.00  0.00    -0.022 A 
ATOM     15  C   UNK d   0       5.289   4.835  23.279  0.00  0.00     0.042 A 
ATOM     16  H   UNK d   0       4.188   6.721  23.535  0.00  0.00     0.166 HD
ATOM     17  C   UNK d   0       6.658   5.171  23.257  0.00  0.00     0.062 C 
ATOM     18  C   UNK d   0       4.921   3.480  23.162  0.00  0.00    -0.013 A 
ATOM     19  C   UNK d   0       7.286   6.184  22.579  0.00  0.00     0.067 A 
ATOM     20  N   UNK d   0       6.505   7.110  22.015  0.00  0.00    -0.248 NA
ATOM     21  C   UNK d   0       8.662   6.543  22.276  0.00  0.00    -0.011 A 
ATOM     22  C   UNK d   0       7.271   8.046  21.364  0.00  0.00     0.066 A 
ATOM     23  C   UNK d   0       6.585   9.091  20.762  0.00  0.00     0.062 C 
ATOM     24  C   UNK d   0       8.645   7.631  21.561  0.00  0.00    -0.020 A 
ATOM     25  C   UNK d   0       5.209   9.360  20.813  0.00  0.00     0.041 A 
ATOM     26  N   UNK d   0       4.144   8.551  20.761  0.00  0.00    -0.355 N 
ATOM     27  C   UNK d   0       4.788  10.699  20.963  0.00  0.00    -0.022 A 
ATOM     28  C   UNK d   0       3.057   9.330  20.877  0.00  0.00     0.042 A 
ATOM     29  H   UNK d   0       4.158   7.443  20.618  0.00  0.00     0.166 HD
ATOM     30  C   UNK d   0       1.690   9.010  20.891  0.00  0.00     0.062 C 
ATOM     31  C   UNK d   0       3.428  10.689  21.004  0.00  0.00    -0.013 A 
ATOM     32  C   UNK d   0       1.070   7.935  21.507  0.00  0.00     0.066 A 
BRANCH   8  33
ATOM     33  C   UNK d   0      -1.470   5.606  22.790  0.00  0.00     0.151 C 
BRANCH  33  34
ATOM     34  C   UNK d   0      -1.883   5.883  24.177  0.00  0.00     0.143 C 
ATOM     35  O   UNK d   0      -2.711   5.160  24.751  0.00  0.00    -0.650 OA
BRANCH  34  36
ATOM     36  O   UNK d   0      -1.342   6.959  24.841  0.00  0.00    -0.776 OA
ATOM     37  H   UNK d   0      -0.885   7.727  24.330  0.00  0.00     0.167 HD
ENDBRANCH  34  36
ENDBRANCH  33  34
ENDBRANCH   8  33
BRANCH  31  38
ATOM     38  C   UNK d   0       2.532  11.895  21.169  0.00  0.00     0.151 C 
BRANCH  38  39
ATOM     39  C   UNK d   0       2.283  12.224  22.557  0.00  0.00     0.143 C 
ATOM     40  O   UNK d   0       1.835  11.395  23.367  0.00  0.00    -0.650 OA
BRANCH  39  41
ATOM     41  O   UNK d   0       2.552  13.514  23.014  0.00  0.00    -0.776 OA
ATOM     42  H   UNK d   0       3.006  14.153  22.354  0.00  0.00     0.167 HD
ENDBRANCH  39  41
ENDBRANCH  38  39
ENDBRANCH  31  38
BRANCH  27  43
ATOM     43  C   UNK d   0       5.613  11.958  21.063  0.00  0.00     0.052 C 
BRANCH  43  44
ATOM     44  C   UNK d   0       5.721  12.698  19.769  0.00  0.00     0.115 C 
BRANCH  44  45
ATOM     45  C   UNK d   0       5.423  14.123  20.069  0.00  0.00     0.139 C 
ATOM     46  O   UNK d   0       5.910  15.001  19.315  0.00  0.00    -0.650 OA
BRANCH  45  47
ATOM     47  O   UNK d   0       4.636  14.514  21.130  0.00  0.00    -0.776 OA
ATOM     48  H   UNK d   0       4.721  15.440  21.580  0.00  0.00     0.167 HD
ENDBRANCH  45  47
ENDBRANCH  44  45
ENDBRANCH  43  44
ENDBRANCH  27  43
BRANCH  24  49
ATOM     49  C   UNK d   0       9.824   8.363  21.068  0.00  0.00     0.052 C 
BRANCH  49  50
ATOM     50  C   UNK d   0      10.240   9.418  22.061  0.00  0.00     0.115 C 
BRANCH  50  51
ATOM     51  C   UNK d   0       9.708  10.760  21.866  0.00  0.00     0.139 C 
ATOM     52  O   UNK d   0       9.295  11.170  20.755  0.00  0.00    -0.650 OA
BRANCH  51  53
ATOM     53  O   UNK d   0       9.651  11.638  22.938  0.00  0.00    -0.776 OA
ATOM     54  H   UNK d   0       9.177  11.338  23.772  0.00  0.00     0.167 HD
ENDBRANCH  51  53
ENDBRANCH  50  51
ENDBRANCH  49  50
ENDBRANCH  24  49
BRANCH  21  55
ATOM     55  C   UNK d   0       9.848   5.763  22.736  0.00  0.00     0.151 C 
BRANCH  55  56
ATOM     56  C   UNK d   0      10.346   6.232  24.039  0.00  0.00     0.143 C 
ATOM     57  O   UNK d   0       9.687   6.122  25.092  0.00  0.00    -0.650 OA
BRANCH  56  58
ATOM     58  O   UNK d   0      11.608   6.822  24.078  0.00  0.00    -0.776 OA
ATOM     59  H   UNK d   0      12.319   6.297  24.617  0.00  0.00     0.167 HD
ENDBRANCH  56  58
ENDBRANCH  55  56
ENDBRANCH  21  55
BRANCH  18  60
ATOM     60  C   UNK d   0       5.791   2.259  23.000  0.00  0.00     0.151 C 
BRANCH  60  61
ATOM     61  C   UNK d   0       6.115   1.810  24.363  0.00  0.00     0.143 C 
ATOM     62  O   UNK d   0       6.956   2.292  25.122  0.00  0.00    -0.650 OA
BRANCH  61  63
ATOM     63  O   UNK d   0       5.365   0.703  24.827  0.00  0.00    -0.776 OA
ATOM     64  H   UNK d   0       5.181  -0.085  24.232  0.00  0.00     0.167 HD
ENDBRANCH  61  63
ENDBRANCH  60  61
ENDBRANCH  18  60
BRANCH  14  65
ATOM     65  C   UNK d   0       2.767   2.185  23.235  0.00  0.00     0.052 C 
BRANCH  65  66
ATOM     66  C   UNK d   0       1.668   2.185  24.238  0.00  0.00     0.115 C 
BRANCH  66  67
ATOM     67  C   UNK d   0       1.980   2.087  25.636  0.00  0.00     0.139 C 
ATOM     68  O   UNK d   0       1.011   1.975  26.474  0.00  0.00    -0.650 OA
BRANCH  67  69
ATOM     69  O   UNK d   0       3.240   2.098  26.231  0.00  0.00    -0.776 OA
ATOM     70  H   UNK d   0       3.632   1.175  26.469  0.00  0.00     0.167 HD
ENDBRANCH  67  69
ENDBRANCH  66  67
ENDBRANCH  65  66
ENDBRANCH  14  65
ENDBRANCH   6   7
ENDBRANCH   5   6
ENDBRANCH   2   5
TORSDOF 28
ENDMDL
MODEL 8
REMARK VINA RESULT:      -9.9      1.453      7.511
REMARK  28 active torsions:
REMARK  status: ('A' for Active; 'I' for Inactive)
REMARK    1  A    between atoms: C_2  and  O_3 
REMARK    2  A    between atoms: C_2  and  C_4 
REMARK    3  A    between atoms: C_4  and  C_5 
REMARK    4  A    between atoms: C_5  and  C_6 
REMARK    5  A    between atoms: C_7  and  C_8 
REMARK    6  A    between atoms: C_8  and  C_9 
REMARK    7  A    between atoms: C_9  and  O_11 
REMARK    8  A    between atoms: C_28  and  C_29 
REMARK    9  A    between atoms: C_29  and  C_30 
REMARK   10  A    between atoms: C_30  and  O_32 
REMARK   11  A    between atoms: C_33  and  C_34 
REMARK   12  A    between atoms: C_34  and  C_35 
REMARK   13  A    between atoms: C_35  and  C_36 
REMARK   14  A    between atoms: C_36  and  O_38 
REMARK   15  A    between atoms: C_39  and  C_40 
REMARK   16  A    between atoms: C_40  and  C_41 
REMARK   17  A    between atoms: C_41  and  C_42 
REMARK   18  A    between atoms: C_42  and  O_44 
REMARK   19  A    between atoms: C_45  and  C_46 
REMARK   20  A    between atoms: C_46  and  C_47 
REMARK   21  A    between atoms: C_47  and  O_49 
REMARK   22  A    between atoms: C_50  and  C_51 
REMARK   23  A    between atoms: C_51  and  C_52 
REMARK   24  A    between atoms: C_52  and  O_54 
REMARK   25  A    between atoms: C_55  and  C_56 
REMARK   26  A    between atoms: C_56  and  C_57 
REMARK   27  A    between atoms: C_57  and  C_58 
REMARK   28  A    between atoms: C_58  and  O_60 
ROOT
ATOM      1  O   UNK d   0      -1.044  10.157  23.651  0.00  0.00    -0.650 OA
ATOM      2  C   UNK d   0      -1.311  10.207  22.430  0.00  0.00     0.139 C 
ENDROOT
BRANCH   2   3
ATOM      3  O   UNK d   0      -0.879  11.280  21.689  0.00  0.00    -0.776 OA
ATOM      4  H   UNK d   0      -0.368  12.051  22.125  0.00  0.00     0.167 HD
ENDBRANCH   2   3
BRANCH   2   5
ATOM      5  C   UNK d   0      -2.092   9.110  21.790  0.00  0.00     0.115 C 
BRANCH   5   6
ATOM      6  C   UNK d   0      -1.203   8.305  20.881  0.00  0.00     0.052 C 
BRANCH   6   7
ATOM      7  C   UNK d   0      -0.037   7.683  21.611  0.00  0.00    -0.020 A 
ATOM      8  C   UNK d   0      -0.066   6.692  22.465  0.00  0.00    -0.011 A 
ATOM      9  C   UNK d   0       1.296   6.448  22.911  0.00  0.00     0.067 A 
ATOM     10  C   UNK d   0       1.931   5.545  23.776  0.00  0.00     0.062 C 
ATOM     11  N   UNK d   0       2.089   7.340  22.281  0.00  0.00    -0.248 NA
ATOM     12  C   UNK d   0       3.302   5.281  23.868  0.00  0.00     0.041 A 
ATOM     13  N   UNK d   0       4.366   6.106  23.859  0.00  0.00    -0.355 N 
ATOM     14  C   UNK d   0       3.736   3.944  23.930  0.00  0.00    -0.022 A 
ATOM     15  C   UNK d   0       5.463   5.327  23.906  0.00  0.00     0.042 A 
ATOM     16  H   UNK d   0       4.342   7.218  23.840  0.00  0.00     0.166 HD
ATOM     17  C   UNK d   0       6.829   5.673  23.921  0.00  0.00     0.062 C 
ATOM     18  C   UNK d   0       5.108   3.965  23.951  0.00  0.00    -0.013 A 
ATOM     19  C   UNK d   0       7.494   6.594  23.152  0.00  0.00     0.067 A 
ATOM     20  N   UNK d   0       6.746   7.426  22.423  0.00  0.00    -0.248 NA
ATOM     21  C   UNK d   0       8.884   6.925  22.886  0.00  0.00    -0.011 A 
ATOM     22  C   UNK d   0       7.546   8.276  21.698  0.00  0.00     0.066 A 
ATOM     23  C   UNK d   0       6.895   9.223  20.921  0.00  0.00     0.062 C 
ATOM     24  C   UNK d   0       8.908   7.907  22.032  0.00  0.00    -0.020 A 
ATOM     25  C   UNK d   0       5.517   9.480  20.853  0.00  0.00     0.041 A 
ATOM     26  N   UNK d   0       4.460   8.659  20.847  0.00  0.00    -0.355 N 
ATOM     27  C   UNK d   0       5.083  10.822  20.796  0.00  0.00    -0.022 A 
ATOM     28  C   UNK d   0       3.364   9.433  20.791  0.00  0.00     0.042 A 
ATOM     29  H   UNK d   0       4.486   7.541  20.855  0.00  0.00     0.166 HD
ATOM     30  C   UNK d   0       2.001   9.102  20.767  0.00  0.00     0.062 C 
ATOM     31  C   UNK d   0       3.722  10.802  20.757  0.00  0.00    -0.013 A 
ATOM     32  C   UNK d   0       1.348   8.112  21.484  0.00  0.00     0.066 A 
BRANCH   8  33
ATOM     33  C   UNK d   0      -1.256   5.946  22.914  0.00  0.00     0.151 C 
BRANCH  33  34
ATOM     34  C   UNK d   0      -1.671   6.304  24.283  0.00  0.00     0.143 C 
ATOM     35  O   UNK d   0      -2.453   5.584  24.919  0.00  0.00    -0.650 OA
BRANCH  34  36
ATOM     36  O   UNK d   0      -1.183   7.455  24.857  0.00  0.00    -0.776 OA
ATOM     37  H   UNK d   0      -1.814   8.156  25.269  0.00  0.00     0.167 HD
ENDBRANCH  34  36
ENDBRANCH  33  34
ENDBRANCH   8  33
BRANCH  31  38
ATOM     38  C   UNK d   0       2.814  12.008  20.704  0.00  0.00     0.151 C 
BRANCH  38  39
ATOM     39  C   UNK d   0       2.369  12.434  22.014  0.00  0.00     0.143 C 
ATOM     40  O   UNK d   0       2.864  11.986  23.063  0.00  0.00    -0.650 OA
BRANCH  39  41
ATOM     41  O   UNK d   0       1.350  13.380  22.118  0.00  0.00    -0.776 OA
ATOM     42  H   UNK d   0       1.359  13.978  22.950  0.00  0.00     0.167 HD
ENDBRANCH  39  41
ENDBRANCH  38  39
ENDBRANCH  31  38
BRANCH  27  43
ATOM     43  C   UNK d   0       5.896  12.092  20.774  0.00  0.00     0.052 C 
BRANCH  43  44
ATOM     44  C   UNK d   0       6.215  12.566  19.393  0.00  0.00     0.115 C 
BRANCH  44  45
ATOM     45  C   UNK d   0       7.527  11.969  19.033  0.00  0.00     0.139 C 
ATOM     46  O   UNK d   0       7.606  11.315  17.963  0.00  0.00    -0.650 OA
BRANCH  45  47
ATOM     47  O   UNK d   0       8.652  12.108  19.816  0.00  0.00    -0.776 OA
ATOM     48  H   UNK d   0       8.892  11.448  20.575  0.00  0.00     0.167 HD
ENDBRANCH  45  47
ENDBRANCH  44  45
ENDBRANCH  43  44
ENDBRANCH  27  43
BRANCH  24  49
ATOM     49  C   UNK d   0      10.111   8.580  21.515  0.00  0.00     0.052 C 
BRANCH  49  50
ATOM     50  C   UNK d   0      10.420   8.105  20.119  0.00  0.00     0.115 C 
BRANCH  50  51
ATOM     51  C   UNK d   0      10.162   9.035  19.028  0.00  0.00     0.139 C 
ATOM     52  O   UNK d   0      10.774  10.122  18.907  0.00  0.00    -0.650 OA
BRANCH  51  53
ATOM     53  O   UNK d   0       9.204   8.725  18.075  0.00  0.00    -0.776 OA
ATOM     54  H   UNK d   0       8.241   8.914  18.290  0.00  0.00     0.167 HD
ENDBRANCH  51  53
ENDBRANCH  50  51
ENDBRANCH  49  50
ENDBRANCH  24  49
BRANCH  21  55
ATOM     55  C   UNK d   0      10.044   6.228  23.517  0.00  0.00     0.151 C 
BRANCH  55  56
ATOM     56  C   UNK d   0      10.255   6.659  24.908  0.00  0.00     0.143 C 
ATOM     57  O   UNK d   0       9.843   6.006  25.887  0.00  0.00    -0.650 OA
BRANCH  56  58
ATOM     58  O   UNK d   0      10.949   7.849  25.120  0.00  0.00    -0.776 OA
ATOM     59  H   UNK d   0      11.812   7.958  24.557  0.00  0.00     0.167 HD
ENDBRANCH  56  58
ENDBRANCH  55  56
ENDBRANCH  21  55
BRANCH  18  60
ATOM     60  C   UNK d   0       5.991   2.743  24.007  0.00  0.00     0.151 C 
BRANCH  60  61
ATOM     61  C   UNK d   0       6.202   2.333  22.611  0.00  0.00     0.143 C 
ATOM     62  O   UNK d   0       5.790   1.307  22.068  0.00  0.00    -0.650 OA
BRANCH  61  63
ATOM     63  O   UNK d   0       6.964   3.233  21.827  0.00  0.00    -0.776 OA
ATOM     64  H   UNK d   0       6.661   3.505  20.909  0.00  0.00     0.167 HD
ENDBRANCH  61  63
ENDBRANCH  60  61
ENDBRANCH  18  60
BRANCH  14  65
ATOM     65  C   UNK d   0       2.958   2.666  24.069  0.00  0.00     0.052 C 
BRANCH  65  66
ATOM     66  C   UNK d   0       2.768   2.252  25.485  0.00  0.00     0.115 C 
BRANCH  66  67
ATOM     67  C   UNK d   0       1.768   1.275  25.813  0.00  0.00     0.139 C 
ATOM     68  O   UNK d   0       1.257   0.577  24.862  0.00  0.00    -0.650 OA
BRANCH  67  69
ATOM     69  O   UNK d   0       1.255   0.969  27.073  0.00  0.00    -0.776 OA
ATOM     70  H   UNK d   0       1.622   0.111  27.509  0.00  0.00     0.167 HD
ENDBRANCH  67  69
ENDBRANCH  66  67
ENDBRANCH  65  66
ENDBRANCH  14  65
ENDBRANCH   6   7
ENDBRANCH   5   6
ENDBRANCH   2   5
TORSDOF 28
ENDMDL
MODEL 9
REMARK VINA RESULT:      -9.7      1.587      7.872
REMARK  28 active torsions:
REMARK  status: ('A' for Active; 'I' for Inactive)
REMARK    1  A    between atoms: C_2  and  O_3 
REMARK    2  A    between atoms: C_2  and  C_4 
REMARK    3  A    between atoms: C_4  and  C_5 
REMARK    4  A    between atoms: C_5  and  C_6 
REMARK    5  A    between atoms: C_7  and  C_8 
REMARK    6  A    between atoms: C_8  and  C_9 
REMARK    7  A    between atoms: C_9  and  O_11 
REMARK    8  A    between atoms: C_28  and  C_29 
REMARK    9  A    between atoms: C_29  and  C_30 
REMARK   10  A    between atoms: C_30  and  O_32 
REMARK   11  A    between atoms: C_33  and  C_34 
REMARK   12  A    between atoms: C_34  and  C_35 
REMARK   13  A    between atoms: C_35  and  C_36 
REMARK   14  A    between atoms: C_36  and  O_38 
REMARK   15  A    between atoms: C_39  and  C_40 
REMARK   16  A    between atoms: C_40  and  C_41 
REMARK   17  A    between atoms: C_41  and  C_42 
REMARK   18  A    between atoms: C_42  and  O_44 
REMARK   19  A    between atoms: C_45  and  C_46 
REMARK   20  A    between atoms: C_46  and  C_47 
REMARK   21  A    between atoms: C_47  and  O_49 
REMARK   22  A    between atoms: C_50  and  C_51 
REMARK   23  A    between atoms: C_51  and  C_52 
REMARK   24  A    between atoms: C_52  and  O_54 
REMARK   25  A    between atoms: C_55  and  C_56 
REMARK   26  A    between atoms: C_56  and  C_57 
REMARK   27  A    between atoms: C_57  and  C_58 
REMARK   28  A    between atoms: C_58  and  O_60 
ROOT
ATOM      1  O   UNK d   0       8.960  12.565  21.871  0.00  0.00    -0.650 OA
ATOM      2  C   UNK d   0       8.364  12.310  20.801  0.00  0.00     0.139 C 
ENDROOT
BRANCH   2   3
ATOM      3  O   UNK d   0       8.998  11.560  19.840  0.00  0.00    -0.776 OA
ATOM      4  H   UNK d   0       9.625  10.794  20.097  0.00  0.00     0.167 HD
ENDBRANCH   2   3
BRANCH   2   5
ATOM      5  C   UNK d   0       6.981  12.816  20.576  0.00  0.00     0.115 C 
BRANCH   5   6
ATOM      6  C   UNK d   0       6.225  11.874  19.678  0.00  0.00     0.052 C 
BRANCH   6   7
ATOM      7  C   UNK d   0       5.348  10.916  20.448  0.00  0.00    -0.020 A 
ATOM      8  C   UNK d   0       4.083  11.060  20.751  0.00  0.00    -0.011 A 
ATOM      9  C   UNK d   0       3.670   9.888  21.505  0.00  0.00     0.067 A 
ATOM     10  C   UNK d   0       2.479   9.426  22.087  0.00  0.00     0.062 C 
ATOM     11  N   UNK d   0       4.749   9.085  21.621  0.00  0.00    -0.248 NA
ATOM     12  C   UNK d   0       2.204   8.131  22.539  0.00  0.00     0.041 A 
ATOM     13  N   UNK d   0       2.951   7.261  23.245  0.00  0.00    -0.355 N 
ATOM     14  C   UNK d   0       0.976   7.537  22.196  0.00  0.00    -0.022 A 
ATOM     15  C   UNK d   0       2.232   6.127  23.351  0.00  0.00     0.042 A 
ATOM     16  H   UNK d   0       3.959   7.451  23.676  0.00  0.00     0.166 HD
ATOM     17  C   UNK d   0       2.539   4.908  23.987  0.00  0.00     0.062 C 
ATOM     18  C   UNK d   0       0.988   6.262  22.706  0.00  0.00    -0.013 A 
ATOM     19  C   UNK d   0       3.704   4.186  23.951  0.00  0.00     0.067 A 
ATOM     20  N   UNK d   0       4.771   4.785  23.415  0.00  0.00    -0.248 NA
ATOM     21  C   UNK d   0       4.120   2.852  24.353  0.00  0.00    -0.011 A 
ATOM     22  C   UNK d   0       5.853   3.940  23.436  0.00  0.00     0.066 A 
ATOM     23  C   UNK d   0       7.044   4.451  22.940  0.00  0.00     0.062 C 
ATOM     24  C   UNK d   0       5.377   2.713  24.044  0.00  0.00    -0.020 A 
ATOM     25  C   UNK d   0       7.303   5.759  22.503  0.00  0.00     0.041 A 
ATOM     26  N   UNK d   0       6.566   6.618  21.789  0.00  0.00    -0.355 N 
ATOM     27  C   UNK d   0       8.534   6.356  22.852  0.00  0.00    -0.022 A 
ATOM     28  C   UNK d   0       7.285   7.746  21.674  0.00  0.00     0.042 A 
ATOM     29  H   UNK d   0       5.558   6.422  21.348  0.00  0.00     0.166 HD
ATOM     30  C   UNK d   0       6.996   8.964  21.037  0.00  0.00     0.062 C 
ATOM     31  C   UNK d   0       8.530   7.614  22.332  0.00  0.00    -0.013 A 
ATOM     32  C   UNK d   0       5.791   9.647  21.005  0.00  0.00     0.066 A 
BRANCH   8  33
ATOM     33  C   UNK d   0       3.214  12.199  20.404  0.00  0.00     0.151 C 
BRANCH  33  34
ATOM     34  C   UNK d   0       3.047  13.150  21.518  0.00  0.00     0.143 C 
ATOM     35  O   UNK d   0       2.339  12.867  22.495  0.00  0.00    -0.650 OA
BRANCH  34  36
ATOM     36  O   UNK d   0       3.687  14.367  21.469  0.00  0.00    -0.776 OA
ATOM     37  H   UNK d   0       3.580  14.994  20.660  0.00  0.00     0.167 HD
ENDBRANCH  34  36
ENDBRANCH  33  34
ENDBRANCH   8  33
BRANCH  31  38
ATOM     38  C   UNK d   0       9.636   8.635  22.461  0.00  0.00     0.151 C 
BRANCH  38  39
ATOM     39  C   UNK d   0      10.658   8.488  21.446  0.00  0.00     0.143 C 
ATOM     40  O   UNK d   0      11.693   7.824  21.635  0.00  0.00    -0.650 OA
BRANCH  39  41
ATOM     41  O   UNK d   0      10.489   9.107  20.208  0.00  0.00    -0.776 OA
ATOM     42  H   UNK d   0      11.163   9.839  19.962  0.00  0.00     0.167 HD
ENDBRANCH  39  41
ENDBRANCH  38  39
ENDBRANCH  31  38
BRANCH  27  43
ATOM     43  C   UNK d   0       9.686   5.786  23.641  0.00  0.00     0.052 C 
BRANCH  43  44
ATOM     44  C   UNK d   0       9.417   5.710  25.108  0.00  0.00     0.115 C 
BRANCH  44  45
ATOM     45  C   UNK d   0      10.427   6.575  25.771  0.00  0.00     0.139 C 
ATOM     46  O   UNK d   0      11.533   6.739  25.198  0.00  0.00    -0.650 OA
BRANCH  45  47
ATOM     47  O   UNK d   0      10.198   7.204  26.975  0.00  0.00    -0.776 OA
ATOM     48  H   UNK d   0       9.458   6.906  27.631  0.00  0.00     0.167 HD
ENDBRANCH  45  47
ENDBRANCH  44  45
ENDBRANCH  43  44
ENDBRANCH  27  43
BRANCH  24  49
ATOM     49  C   UNK d   0       6.210   1.528  24.310  0.00  0.00     0.052 C 
BRANCH  49  50
ATOM     50  C   UNK d   0       5.962   0.468  23.267  0.00  0.00     0.115 C 
BRANCH  50  51
ATOM     51  C   UNK d   0       5.771  -0.897  23.739  0.00  0.00     0.139 C 
ATOM     52  O   UNK d   0       6.713  -1.719  23.833  0.00  0.00    -0.650 OA
BRANCH  51  53
ATOM     53  O   UNK d   0       4.503  -1.326  24.102  0.00  0.00    -0.776 OA
ATOM     54  H   UNK d   0       4.319  -2.314  24.109  0.00  0.00     0.167 HD
ENDBRANCH  51  53
ENDBRANCH  50  51
ENDBRANCH  49  50
ENDBRANCH  24  49
BRANCH  21  55
ATOM     55  C   UNK d   0       3.219   1.858  25.007  0.00  0.00     0.151 C 
BRANCH  55  56
ATOM     56  C   UNK d   0       2.216   1.324  24.072  0.00  0.00     0.143 C 
ATOM     57  O   UNK d   0       2.509   0.554  23.136  0.00  0.00    -0.650 OA
BRANCH  56  58
ATOM     58  O   UNK d   0       0.889   1.706  24.256  0.00  0.00    -0.776 OA
ATOM     59  H   UNK d   0       0.404   1.234  25.041  0.00  0.00     0.167 HD
ENDBRANCH  56  58
ENDBRANCH  55  56
ENDBRANCH  21  55
BRANCH  18  60
ATOM     60  C   UNK d   0      -0.134   5.264  22.563  0.00  0.00     0.151 C 
BRANCH  60  61
ATOM     61  C   UNK d   0      -0.664   5.056  23.920  0.00  0.00     0.143 C 
ATOM     62  O   UNK d   0      -0.815   3.981  24.501  0.00  0.00    -0.650 OA
BRANCH  61  63
ATOM     63  O   UNK d   0      -1.033   6.236  24.610  0.00  0.00    -0.776 OA
ATOM     64  H   UNK d   0      -0.367   6.737  25.172  0.00  0.00     0.167 HD
ENDBRANCH  61  63
ENDBRANCH  60  61
ENDBRANCH  18  60
BRANCH  14  65
ATOM     65  C   UNK d   0      -0.235   8.110  21.516  0.00  0.00     0.052 C 
BRANCH  65  66
ATOM     66  C   UNK d   0      -1.207   8.711  22.467  0.00  0.00     0.115 C 
BRANCH  66  67
ATOM     67  C   UNK d   0      -0.869   9.923  23.159  0.00  0.00     0.139 C 
ATOM     68  O   UNK d   0      -0.958   9.943  24.442  0.00  0.00    -0.650 OA
BRANCH  67  69
ATOM     69  O   UNK d   0      -0.442  11.130  22.607  0.00  0.00    -0.776 OA
ATOM     70  H   UNK d   0       0.150  11.716  23.213  0.00  0.00     0.167 HD
ENDBRANCH  67  69
ENDBRANCH  66  67
ENDBRANCH  65  66
ENDBRANCH  14  65
ENDBRANCH   6   7
ENDBRANCH   5   6
ENDBRANCH   2   5
TORSDOF 28
ENDMDL
MODEL 10
REMARK VINA RESULT:      -9.7      2.773      5.024
REMARK  28 active torsions:
REMARK  status: ('A' for Active; 'I' for Inactive)
REMARK    1  A    between atoms: C_2  and  O_3 
REMARK    2  A    between atoms: C_2  and  C_4 
REMARK    3  A    between atoms: C_4  and  C_5 
REMARK    4  A    between atoms: C_5  and  C_6 
REMARK    5  A    between atoms: C_7  and  C_8 
REMARK    6  A    between atoms: C_8  and  C_9 
REMARK    7  A    between atoms: C_9  and  O_11 
REMARK    8  A    between atoms: C_28  and  C_29 
REMARK    9  A    between atoms: C_29  and  C_30 
REMARK   10  A    between atoms: C_30  and  O_32 
REMARK   11  A    between atoms: C_33  and  C_34 
REMARK   12  A    between atoms: C_34  and  C_35 
REMARK   13  A    between atoms: C_35  and  C_36 
REMARK   14  A    between atoms: C_36  and  O_38 
REMARK   15  A    between atoms: C_39  and  C_40 
REMARK   16  A    between atoms: C_40  and  C_41 
REMARK   17  A    between atoms: C_41  and  C_42 
REMARK   18  A    between atoms: C_42  and  O_44 
REMARK   19  A    between atoms: C_45  and  C_46 
REMARK   20  A    between atoms: C_46  and  C_47 
REMARK   21  A    between atoms: C_47  and  O_49 
REMARK   22  A    between atoms: C_50  and  C_51 
REMARK   23  A    between atoms: C_51  and  C_52 
REMARK   24  A    between atoms: C_52  and  O_54 
REMARK   25  A    between atoms: C_55  and  C_56 
REMARK   26  A    between atoms: C_56  and  C_57 
REMARK   27  A    between atoms: C_57  and  C_58 
REMARK   28  A    between atoms: C_58  and  O_60 
ROOT
ATOM      1  O   UNK d   0      -0.854   0.183  24.693  0.00  0.00    -0.650 OA
ATOM      2  C   UNK d   0      -1.627   0.122  23.711  0.00  0.00     0.139 C 
ENDROOT
BRANCH   2   3
ATOM      3  O   UNK d   0      -2.083  -1.103  23.288  0.00  0.00    -0.776 OA
ATOM      4  H   UNK d   0      -1.446  -1.792  22.883  0.00  0.00     0.167 HD
ENDBRANCH   2   3
BRANCH   2   5
ATOM      5  C   UNK d   0      -2.045   1.369  23.010  0.00  0.00     0.115 C 
BRANCH   5   6
ATOM      6  C   UNK d   0      -2.056   2.526  23.972  0.00  0.00     0.052 C 
BRANCH   6   7
ATOM      7  C   UNK d   0      -1.173   3.665  23.522  0.00  0.00    -0.020 A 
ATOM      8  C   UNK d   0      -1.548   4.830  23.058  0.00  0.00    -0.011 A 
ATOM      9  C   UNK d   0      -0.350   5.592  22.749  0.00  0.00     0.067 A 
ATOM     10  C   UNK d   0      -0.065   6.875  22.257  0.00  0.00     0.062 C 
ATOM     11  N   UNK d   0       0.710   4.813  23.051  0.00  0.00    -0.248 NA
ATOM     12  C   UNK d   0       1.166   7.541  22.288  0.00  0.00     0.041 A 
ATOM     13  N   UNK d   0       2.415   7.106  22.035  0.00  0.00    -0.355 N 
ATOM     14  C   UNK d   0       1.202   8.887  22.695  0.00  0.00    -0.022 A 
ATOM     15  C   UNK d   0       3.243   8.139  22.278  0.00  0.00     0.042 A 
ATOM     16  H   UNK d   0       2.704   6.095  21.672  0.00  0.00     0.166 HD
ATOM     17  C   UNK d   0       4.645   8.230  22.173  0.00  0.00     0.062 C 
ATOM     18  C   UNK d   0       2.519   9.273  22.695  0.00  0.00    -0.013 A 
ATOM     19  C   UNK d   0       5.601   7.341  22.593  0.00  0.00     0.067 A 
ATOM     20  N   UNK d   0       5.178   6.135  22.979  0.00  0.00    -0.248 NA
ATOM     21  C   UNK d   0       7.045   7.360  22.757  0.00  0.00    -0.011 A 
ATOM     22  C   UNK d   0       6.239   5.364  23.385  0.00  0.00     0.066 A 
ATOM     23  C   UNK d   0       5.945   4.067  23.779  0.00  0.00     0.062 C 
ATOM     24  C   UNK d   0       7.412   6.201  23.225  0.00  0.00    -0.020 A 
ATOM     25  C   UNK d   0       4.704   3.414  23.728  0.00  0.00     0.041 A 
ATOM     26  N   UNK d   0       3.464   3.841  23.994  0.00  0.00    -0.355 N 
ATOM     27  C   UNK d   0       4.668   2.064  23.315  0.00  0.00    -0.022 A 
ATOM     28  C   UNK d   0       2.637   2.810  23.760  0.00  0.00     0.042 A 
ATOM     29  H   UNK d   0       3.176   4.854  24.369  0.00  0.00     0.166 HD
ATOM     30  C   UNK d   0       1.241   2.703  23.870  0.00  0.00     0.062 C 
ATOM     31  C   UNK d   0       3.364   1.674  23.331  0.00  0.00    -0.013 A 
ATOM     32  C   UNK d   0       0.282   3.640  23.522  0.00  0.00     0.066 A 
BRANCH   8  33
ATOM     33  C   UNK d   0      -2.932   5.303  22.867  0.00  0.00     0.151 C 
BRANCH  33  34
ATOM     34  C   UNK d   0      -3.367   5.243  21.460  0.00  0.00     0.143 C 
ATOM     35  O   UNK d   0      -3.802   4.190  20.973  0.00  0.00    -0.650 OA
BRANCH  34  36
ATOM     36  O   UNK d   0      -3.286   6.373  20.680  0.00  0.00    -0.776 OA
ATOM     37  H   UNK d   0      -2.404   6.894  20.584  0.00  0.00     0.167 HD
ENDBRANCH  34  36
ENDBRANCH  33  34
ENDBRANCH   8  33
BRANCH  31  38
ATOM     38  C   UNK d   0       2.836   0.311  22.951  0.00  0.00     0.151 C 
BRANCH  38  39
ATOM     39  C   UNK d   0       2.748  -0.592  24.079  0.00  0.00     0.143 C 
ATOM     40  O   UNK d   0       3.229  -1.738  24.053  0.00  0.00    -0.650 OA
BRANCH  39  41
ATOM     41  O   UNK d   0       2.104  -0.174  25.244  0.00  0.00    -0.776 OA
ATOM     42  H   UNK d   0       2.663   0.363  25.913  0.00  0.00     0.167 HD
ENDBRANCH  39  41
ENDBRANCH  38  39
ENDBRANCH  31  38
BRANCH  27  43
ATOM     43  C   UNK d   0       5.802   1.153  22.916  0.00  0.00     0.052 C 
BRANCH  43  44
ATOM     44  C   UNK d   0       6.587   0.642  24.081  0.00  0.00     0.115 C 
BRANCH  44  45
ATOM     45  C   UNK d   0       6.499  -0.840  24.034  0.00  0.00     0.139 C 
ATOM     46  O   UNK d   0       6.949  -1.491  25.010  0.00  0.00    -0.650 OA
BRANCH  45  47
ATOM     47  O   UNK d   0       5.942  -1.523  22.974  0.00  0.00    -0.776 OA
ATOM     48  H   UNK d   0       5.598  -2.494  23.052  0.00  0.00     0.167 HD
ENDBRANCH  45  47
ENDBRANCH  44  45
ENDBRANCH  43  44
ENDBRANCH  27  43
BRANCH  24  49
ATOM     49  C   UNK d   0       8.794   5.775  23.503  0.00  0.00     0.052 C 
BRANCH  49  50
ATOM     50  C   UNK d   0       9.426   5.200  22.261  0.00  0.00     0.115 C 
BRANCH  50  51
ATOM     51  C   UNK d   0      10.375   6.043  21.547  0.00  0.00     0.139 C 
ATOM     52  O   UNK d   0      11.111   6.875  22.128  0.00  0.00    -0.650 OA
BRANCH  51  53
ATOM     53  O   UNK d   0      10.484   5.940  20.169  0.00  0.00    -0.776 OA
ATOM     54  H   UNK d   0       9.649   6.036  19.618  0.00  0.00     0.167 HD
ENDBRANCH  51  53
ENDBRANCH  50  51
ENDBRANCH  49  50
ENDBRANCH  24  49
BRANCH  21  55
ATOM     55  C   UNK d   0       7.908   8.532  22.425  0.00  0.00     0.151 C 
BRANCH  55  56
ATOM     56  C   UNK d   0       7.783   8.927  21.014  0.00  0.00     0.143 C 
ATOM     57  O   UNK d   0       7.304  10.023  20.660  0.00  0.00    -0.650 OA
BRANCH  56  58
ATOM     58  O   UNK d   0       8.222   8.026  20.046  0.00  0.00    -0.776 OA
ATOM     59  H   UNK d   0       8.276   8.410  19.085  0.00  0.00     0.167 HD
ENDBRANCH  56  58
ENDBRANCH  55  56
ENDBRANCH  21  55
BRANCH  18  60
ATOM     60  C   UNK d   0       3.018  10.645  23.077  0.00  0.00     0.151 C 
BRANCH  60  61
ATOM     61  C   UNK d   0       3.142  10.635  24.543  0.00  0.00     0.143 C 
ATOM     62  O   UNK d   0       3.226  11.613  25.287  0.00  0.00    -0.650 OA
BRANCH  61  63
ATOM     63  O   UNK d   0       3.165   9.351  25.137  0.00  0.00    -0.776 OA
ATOM     64  H   UNK d   0       3.021   9.234  26.125  0.00  0.00     0.167 HD
ENDBRANCH  61  63
ENDBRANCH  60  61
ENDBRANCH  18  60
BRANCH  14  65
ATOM     65  C   UNK d   0       0.089   9.853  22.986  0.00  0.00     0.052 C 
BRANCH  65  66
ATOM     66  C   UNK d   0      -0.815   9.389  24.072  0.00  0.00     0.115 C 
BRANCH  66  67
ATOM     67  C   UNK d   0      -0.275   9.085  25.367  0.00  0.00     0.139 C 
ATOM     68  O   UNK d   0      -0.545   9.874  26.346  0.00  0.00    -0.650 OA
BRANCH  67  69
ATOM     69  O   UNK d   0       0.537   8.008  25.722  0.00  0.00    -0.776 OA
ATOM     70  H   UNK d   0       0.358   7.599  26.650  0.00  0.00     0.167 HD
ENDBRANCH  67  69
ENDBRANCH  66  67
ENDBRANCH  65  66
ENDBRANCH  14  65
ENDBRANCH   6   7
ENDBRANCH   5   6
ENDBRANCH   2   5
TORSDOF 28
ENDMDL
MODEL 11
REMARK VINA RESULT:      -9.7      1.518      7.695
REMARK  28 active torsions:
REMARK  status: ('A' for Active; 'I' for Inactive)
REMARK    1  A    between atoms: C_2  and  O_3 
REMARK    2  A    between atoms: C_2  and  C_4 
REMARK    3  A    between atoms: C_4  and  C_5 
REMARK    4  A    between atoms: C_5  and  C_6 
REMARK    5  A    between atoms: C_7  and  C_8 
REMARK    6  A    between atoms: C_8  and  C_9 
REMARK    7  A    between atoms: C_9  and  O_11 
REMARK    8  A    between atoms: C_28  and  C_29 
REMARK    9  A    between atoms: C_29  and  C_30 
REMARK   10  A    between atoms: C_30  and  O_32 
REMARK   11  A    between atoms: C_33  and  C_34 
REMARK   12  A    between atoms: C_34  and  C_35 
REMARK   13  A    between atoms: C_35  and  C_36 
REMARK   14  A    between atoms: C_36  and  O_38 
REMARK   15  A    between atoms: C_39  and  C_40 
REMARK   16  A    between atoms: C_40  and  C_41 
REMARK   17  A    between atoms: C_41  and  C_42 
REMARK   18  A    between atoms: C_42  and  O_44 
REMARK   19  A    between atoms: C_45  and  C_46 
REMARK   20  A    between atoms: C_46  and  C_47 
REMARK   21  A    between atoms: C_47  and  O_49 
REMARK   22  A    between atoms: C_50  and  C_51 
REMARK   23  A    between atoms: C_51  and  C_52 
REMARK   24  A    between atoms: C_52  and  O_54 
REMARK   25  A    between atoms: C_55  and  C_56 
REMARK   26  A    between atoms: C_56  and  C_57 
REMARK   27  A    between atoms: C_57  and  C_58 
REMARK   28  A    between atoms: C_58  and  O_60 
ROOT
ATOM      1  O   UNK d   0      -1.120   7.361  24.999  0.00  0.00    -0.650 OA
ATOM      2  C   UNK d   0      -1.457   6.698  23.992  0.00  0.00     0.139 C 
ENDROOT
BRANCH   2   3
ATOM      3  O   UNK d   0      -2.052   7.339  22.932  0.00  0.00    -0.776 OA
ATOM      4  H   UNK d   0      -2.986   7.745  23.018  0.00  0.00     0.167 HD
ENDBRANCH   2   3
BRANCH   2   5
ATOM      5  C   UNK d   0      -1.213   5.229  23.949  0.00  0.00     0.115 C 
BRANCH   5   6
ATOM      6  C   UNK d   0      -0.382   4.877  22.745  0.00  0.00     0.052 C 
BRANCH   6   7
ATOM      7  C   UNK d   0       1.090   5.138  22.959  0.00  0.00    -0.020 A 
ATOM      8  C   UNK d   0       1.950   4.384  23.595  0.00  0.00    -0.011 A 
ATOM      9  C   UNK d   0       3.243   5.047  23.549  0.00  0.00     0.067 A 
ATOM     10  C   UNK d   0       4.540   4.768  24.006  0.00  0.00     0.062 C 
ATOM     11  N   UNK d   0       3.077   6.201  22.870  0.00  0.00    -0.248 NA
ATOM     12  C   UNK d   0       5.728   5.402  23.623  0.00  0.00     0.041 A 
ATOM     13  N   UNK d   0       6.015   6.703  23.429  0.00  0.00    -0.355 N 
ATOM     14  C   UNK d   0       6.851   4.613  23.315  0.00  0.00    -0.022 A 
ATOM     15  C   UNK d   0       7.290   6.759  22.999  0.00  0.00     0.042 A 
ATOM     16  H   UNK d   0       5.337   7.566  23.612  0.00  0.00     0.166 HD
ATOM     17  C   UNK d   0       8.088   7.867  22.651  0.00  0.00     0.062 C 
ATOM     18  C   UNK d   0       7.847   5.469  22.914  0.00  0.00    -0.013 A 
ATOM     19  C   UNK d   0       7.763   8.959  21.886  0.00  0.00     0.067 A 
ATOM     20  N   UNK d   0       6.473   9.119  21.580  0.00  0.00    -0.248 NA
ATOM     21  C   UNK d   0       8.490  10.054  21.266  0.00  0.00    -0.011 A 
ATOM     22  C   UNK d   0       6.304  10.239  20.803  0.00  0.00     0.066 A 
ATOM     23  C   UNK d   0       5.001  10.547  20.441  0.00  0.00     0.062 C 
ATOM     24  C   UNK d   0       7.631  10.797  20.630  0.00  0.00    -0.020 A 
ATOM     25  C   UNK d   0       3.820   9.906  20.848  0.00  0.00     0.041 A 
ATOM     26  N   UNK d   0       3.530   8.611  21.026  0.00  0.00    -0.355 N 
ATOM     27  C   UNK d   0       2.695  10.698  21.161  0.00  0.00    -0.022 A 
ATOM     28  C   UNK d   0       2.256   8.552  21.446  0.00  0.00     0.042 A 
ATOM     29  H   UNK d   0       4.209   7.745  20.832  0.00  0.00     0.166 HD
ATOM     30  C   UNK d   0       1.447   7.456  21.787  0.00  0.00     0.062 C 
ATOM     31  C   UNK d   0       1.701   9.850  21.541  0.00  0.00    -0.013 A 
ATOM     32  C   UNK d   0       1.804   6.315  22.488  0.00  0.00     0.066 A 
BRANCH   8  33
ATOM     33  C   UNK d   0       1.678   3.093  24.254  0.00  0.00     0.151 C 
BRANCH  33  34
ATOM     34  C   UNK d   0       1.879   3.143  25.713  0.00  0.00     0.143 C 
ATOM     35  O   UNK d   0       1.221   3.918  26.420  0.00  0.00    -0.650 OA
BRANCH  34  36
ATOM     36  O   UNK d   0       2.813   2.316  26.294  0.00  0.00    -0.776 OA
ATOM     37  H   UNK d   0       3.794   2.315  25.982  0.00  0.00     0.167 HD
ENDBRANCH  34  36
ENDBRANCH  33  34
ENDBRANCH   8  33
BRANCH  31  38
ATOM     38  C   UNK d   0       0.311  10.245  21.981  0.00  0.00     0.151 C 
BRANCH  38  39
ATOM     39  C   UNK d   0       0.125  10.145  23.413  0.00  0.00     0.143 C 
ATOM     40  O   UNK d   0       1.081  10.049  24.203  0.00  0.00    -0.650 OA
BRANCH  39  41
ATOM     41  O   UNK d   0      -1.166  10.154  23.940  0.00  0.00    -0.776 OA
ATOM     42  H   UNK d   0      -1.673  11.044  23.903  0.00  0.00     0.167 HD
ENDBRANCH  39  41
ENDBRANCH  38  39
ENDBRANCH  31  38
BRANCH  27  43
ATOM     43  C   UNK d   0       2.534  12.197  21.110  0.00  0.00     0.052 C 
BRANCH  43  44
ATOM     44  C   UNK d   0       3.025  12.801  19.835  0.00  0.00     0.115 C 
BRANCH  44  45
ATOM     45  C   UNK d   0       3.778  14.027  20.208  0.00  0.00     0.139 C 
ATOM     46  O   UNK d   0       3.597  14.506  21.355  0.00  0.00    -0.650 OA
BRANCH  45  47
ATOM     47  O   UNK d   0       4.664  14.648  19.355  0.00  0.00    -0.776 OA
ATOM     48  H   UNK d   0       5.677  14.444  19.352  0.00  0.00     0.167 HD
ENDBRANCH  45  47
ENDBRANCH  44  45
ENDBRANCH  43  44
ENDBRANCH  27  43
BRANCH  24  49
ATOM     49  C   UNK d   0       7.932  12.036  19.892  0.00  0.00     0.052 C 
BRANCH  49  50
ATOM     50  C   UNK d   0       7.330  11.984  18.511  0.00  0.00     0.115 C 
BRANCH  50  51
ATOM     51  C   UNK d   0       8.095  11.298  17.478  0.00  0.00     0.139 C 
ATOM     52  O   UNK d   0       8.380  10.079  17.544  0.00  0.00    -0.650 OA
BRANCH  51  53
ATOM     53  O   UNK d   0       8.536  12.004  16.369  0.00  0.00    -0.776 OA
ATOM     54  H   UNK d   0       8.208  11.720  15.463  0.00  0.00     0.167 HD
ENDBRANCH  51  53
ENDBRANCH  50  51
ENDBRANCH  49  50
ENDBRANCH  24  49
BRANCH  21  55
ATOM     55  C   UNK d   0       9.966  10.245  21.377  0.00  0.00     0.151 C 
BRANCH  55  56
ATOM     56  C   UNK d   0      10.699   9.494  20.346  0.00  0.00     0.143 C 
ATOM     57  O   UNK d   0      11.170   8.358  20.547  0.00  0.00    -0.650 OA
BRANCH  56  58
ATOM     58  O   UNK d   0      10.863  10.095  19.099  0.00  0.00    -0.776 OA
ATOM     59  H   UNK d   0      11.617   9.690  18.516  0.00  0.00     0.167 HD
ENDBRANCH  56  58
ENDBRANCH  55  56
ENDBRANCH  21  55
BRANCH  18  60
ATOM     60  C   UNK d   0       9.229   5.045  22.482  0.00  0.00     0.151 C 
BRANCH  60  61
ATOM     61  C   UNK d   0      10.166   5.806  23.323  0.00  0.00     0.143 C 
ATOM     62  O   UNK d   0      10.177   5.870  24.552  0.00  0.00    -0.650 OA
BRANCH  61  63
ATOM     63  O   UNK d   0      11.152   6.536  22.616  0.00  0.00    -0.776 OA
ATOM     64  H   UNK d   0      10.896   7.227  21.934  0.00  0.00     0.167 HD
ENDBRANCH  61  63
ENDBRANCH  60  61
ENDBRANCH  18  60
BRANCH  14  65
ATOM     65  C   UNK d   0       7.083   3.136  23.463  0.00  0.00     0.052 C 
BRANCH  65  66
ATOM     66  C   UNK d   0       5.876   2.324  23.154  0.00  0.00     0.115 C 
BRANCH  66  67
ATOM     67  C   UNK d   0       5.569   1.172  23.955  0.00  0.00     0.139 C 
ATOM     68  O   UNK d   0       6.535   0.413  24.335  0.00  0.00    -0.650 OA
BRANCH  67  69
ATOM     69  O   UNK d   0       4.316   0.748  24.395  0.00  0.00    -0.776 OA
ATOM     70  H   UNK d   0       4.089  -0.241  24.215  0.00  0.00     0.167 HD
ENDBRANCH  67  69
ENDBRANCH  66  67
ENDBRANCH  65  66
ENDBRANCH  14  65
ENDBRANCH   6   7
ENDBRANCH   5   6
ENDBRANCH   2   5
TORSDOF 28
ENDMDL
MODEL 12
REMARK VINA RESULT:      -9.6      3.135      7.637
REMARK  28 active torsions:
REMARK  status: ('A' for Active; 'I' for Inactive)
REMARK    1  A    between atoms: C_2  and  O_3 
REMARK    2  A    between atoms: C_2  and  C_4 
REMARK    3  A    between atoms: C_4  and  C_5 
REMARK    4  A    between atoms: C_5  and  C_6 
REMARK    5  A    between atoms: C_7  and  C_8 
REMARK    6  A    between atoms: C_8  and  C_9 
REMARK    7  A    between atoms: C_9  and  O_11 
REMARK    8  A    between atoms: C_28  and  C_29 
REMARK    9  A    between atoms: C_29  and  C_30 
REMARK   10  A    between atoms: C_30  and  O_32 
REMARK   11  A    between atoms: C_33  and  C_34 
REMARK   12  A    between atoms: C_34  and  C_35 
REMARK   13  A    between atoms: C_35  and  C_36 
REMARK   14  A    between atoms: C_36  and  O_38 
REMARK   15  A    between atoms: C_39  and  C_40 
REMARK   16  A    between atoms: C_40  and  C_41 
REMARK   17  A    between atoms: C_41  and  C_42 
REMARK   18  A    between atoms: C_42  and  O_44 
REMARK   19  A    between atoms: C_45  and  C_46 
REMARK   20  A    between atoms: C_46  and  C_47 
REMARK   21  A    between atoms: C_47  and  O_49 
REMARK   22  A    between atoms: C_50  and  C_51 
REMARK   23  A    between atoms: C_51  and  C_52 
REMARK   24  A    between atoms: C_52  and  O_54 
REMARK   25  A    between atoms: C_55  and  C_56 
REMARK   26  A    between atoms: C_56  and  C_57 
REMARK   27  A    between atoms: C_57  and  C_58 
REMARK   28  A    between atoms: C_58  and  O_60 
ROOT
ATOM      1  O   UNK d   0       0.336  -2.632  26.412  0.00  0.00    -0.650 OA
ATOM      2  C   UNK d   0      -0.022  -1.471  26.712  0.00  0.00     0.139 C 
ENDROOT
BRANCH   2   3
ATOM      3  O   UNK d   0      -1.105  -1.292  27.538  0.00  0.00    -0.776 OA
ATOM      4  H   UNK d   0      -1.793  -0.559  27.355  0.00  0.00     0.167 HD
ENDBRANCH   2   3
BRANCH   2   5
ATOM      5  C   UNK d   0       0.722  -0.297  26.174  0.00  0.00     0.115 C 
BRANCH   5   6
ATOM      6  C   UNK d   0       0.596  -0.245  24.676  0.00  0.00     0.052 C 
BRANCH   6   7
ATOM      7  C   UNK d   0       0.408   1.160  24.156  0.00  0.00    -0.020 A 
ATOM      8  C   UNK d   0      -0.709   1.730  23.783  0.00  0.00    -0.011 A 
ATOM      9  C   UNK d   0      -0.395   3.082  23.350  0.00  0.00     0.067 A 
ATOM     10  C   UNK d   0      -1.118   4.185  22.870  0.00  0.00     0.062 C 
ATOM     11  N   UNK d   0       0.937   3.247  23.488  0.00  0.00    -0.248 NA
ATOM     12  C   UNK d   0      -0.675   5.508  22.766  0.00  0.00     0.041 A 
ATOM     13  N   UNK d   0       0.496   6.020  22.341  0.00  0.00    -0.355 N 
ATOM     14  C   UNK d   0      -1.516   6.544  23.211  0.00  0.00    -0.022 A 
ATOM     15  C   UNK d   0       0.422   7.354  22.512  0.00  0.00     0.042 A 
ATOM     16  H   UNK d   0       1.350   5.453  21.910  0.00  0.00     0.166 HD
ATOM     17  C   UNK d   0       1.363   8.364  22.232  0.00  0.00     0.062 C 
ATOM     18  C   UNK d   0      -0.825   7.720  23.056  0.00  0.00    -0.013 A 
ATOM     19  C   UNK d   0       2.709   8.387  22.497  0.00  0.00     0.067 A 
ATOM     20  N   UNK d   0       3.266   7.239  22.893  0.00  0.00    -0.248 NA
ATOM     21  C   UNK d   0       3.761   9.389  22.476  0.00  0.00    -0.011 A 
ATOM     22  C   UNK d   0       4.606   7.419  23.134  0.00  0.00     0.066 A 
ATOM     23  C   UNK d   0       5.320   6.293  23.517  0.00  0.00     0.062 C 
ATOM     24  C   UNK d   0       4.868   8.817  22.854  0.00  0.00    -0.020 A 
ATOM     25  C   UNK d   0       4.859   4.971  23.603  0.00  0.00     0.041 A 
ATOM     26  N   UNK d   0       3.702   4.460  24.039  0.00  0.00    -0.355 N 
ATOM     27  C   UNK d   0       5.703   3.932  23.152  0.00  0.00    -0.022 A 
ATOM     28  C   UNK d   0       3.776   3.130  23.877  0.00  0.00     0.042 A 
ATOM     29  H   UNK d   0       2.849   5.031  24.481  0.00  0.00     0.166 HD
ATOM     30  C   UNK d   0       2.851   2.112  24.160  0.00  0.00     0.062 C 
ATOM     31  C   UNK d   0       5.025   2.764  23.321  0.00  0.00    -0.013 A 
ATOM     32  C   UNK d   0       1.479   2.128  23.969  0.00  0.00     0.066 A 
BRANCH   8  33
ATOM     33  C   UNK d   0      -2.055   1.128  23.786  0.00  0.00     0.151 C 
BRANCH  33  34
ATOM     34  C   UNK d   0      -2.834   1.481  24.986  0.00  0.00     0.143 C 
ATOM     35  O   UNK d   0      -2.491   1.083  26.109  0.00  0.00    -0.650 OA
BRANCH  34  36
ATOM     36  O   UNK d   0      -3.960   2.262  24.855  0.00  0.00    -0.776 OA
ATOM     37  H   UNK d   0      -4.484   2.585  25.679  0.00  0.00     0.167 HD
ENDBRANCH  34  36
ENDBRANCH  33  34
ENDBRANCH   8  33
BRANCH  31  38
ATOM     38  C   UNK d   0       5.525   1.383  22.965  0.00  0.00     0.151 C 
BRANCH  38  39
ATOM     39  C   UNK d   0       6.154   0.708  24.081  0.00  0.00     0.143 C 
ATOM     40  O   UNK d   0       6.493  -0.487  24.031  0.00  0.00    -0.650 OA
BRANCH  39  41
ATOM     41  O   UNK d   0       6.395   1.412  25.261  0.00  0.00    -0.776 OA
ATOM     42  H   UNK d   0       7.368   1.666  25.456  0.00  0.00     0.167 HD
ENDBRANCH  39  41
ENDBRANCH  38  39
ENDBRANCH  31  38
BRANCH  27  43
ATOM     43  C   UNK d   0       7.097   4.008  22.582  0.00  0.00     0.052 C 
BRANCH  43  44
ATOM     44  C   UNK d   0       8.083   4.636  23.513  0.00  0.00     0.115 C 
BRANCH  44  45
ATOM     45  C   UNK d   0       8.922   5.547  22.692  0.00  0.00     0.139 C 
ATOM     46  O   UNK d   0       9.918   6.085  23.236  0.00  0.00    -0.650 OA
BRANCH  45  47
ATOM     47  O   UNK d   0       8.655   5.819  21.368  0.00  0.00    -0.776 OA
ATOM     48  H   UNK d   0       7.706   5.758  20.964  0.00  0.00     0.167 HD
ENDBRANCH  45  47
ENDBRANCH  44  45
ENDBRANCH  43  44
ENDBRANCH  27  43
BRANCH  24  49
ATOM     49  C   UNK d   0       6.191   9.459  22.939  0.00  0.00     0.052 C 
BRANCH  49  50
ATOM     50  C   UNK d   0       7.148   8.818  21.967  0.00  0.00     0.115 C 
BRANCH  50  51
ATOM     51  C   UNK d   0       6.877   9.001  20.548  0.00  0.00     0.139 C 
ATOM     52  O   UNK d   0       6.714  10.132  20.031  0.00  0.00    -0.650 OA
BRANCH  51  53
ATOM     53  O   UNK d   0       6.787   7.895  19.718  0.00  0.00    -0.776 OA
ATOM     54  H   UNK d   0       7.611   7.336  19.580  0.00  0.00     0.167 HD
ENDBRANCH  51  53
ENDBRANCH  50  51
ENDBRANCH  49  50
ENDBRANCH  24  49
BRANCH  21  55
ATOM     55  C   UNK d   0       3.551  10.812  22.077  0.00  0.00     0.151 C 
BRANCH  55  56
ATOM     56  C   UNK d   0       2.661  11.521  23.009  0.00  0.00     0.143 C 
ATOM     57  O   UNK d   0       1.587  12.043  22.651  0.00  0.00    -0.650 OA
BRANCH  56  58
ATOM     58  O   UNK d   0       3.051  11.601  24.345  0.00  0.00    -0.776 OA
ATOM     59  H   UNK d   0       4.075  11.624  24.499  0.00  0.00     0.167 HD
ENDBRANCH  56  58
ENDBRANCH  55  56
ENDBRANCH  21  55
BRANCH  18  60
ATOM     60  C   UNK d   0      -1.351   9.086  23.418  0.00  0.00     0.151 C 
BRANCH  60  61
ATOM     61  C   UNK d   0      -1.677   9.744  22.143  0.00  0.00     0.143 C 
ATOM     62  O   UNK d   0      -2.259   9.247  21.179  0.00  0.00    -0.650 OA
BRANCH  61  63
ATOM     63  O   UNK d   0      -1.267  11.095  22.041  0.00  0.00    -0.776 OA
ATOM     64  H   UNK d   0      -0.608  11.385  21.340  0.00  0.00     0.167 HD
ENDBRANCH  61  63
ENDBRANCH  60  61
ENDBRANCH  18  60
BRANCH  14  65
ATOM     65  C   UNK d   0      -2.945   6.517  23.674  0.00  0.00     0.052 C 
BRANCH  65  66
ATOM     66  C   UNK d   0      -3.921   6.556  22.552  0.00  0.00     0.115 C 
BRANCH  66  67
ATOM     67  C   UNK d   0      -4.927   5.536  22.448  0.00  0.00     0.139 C 
ATOM     68  O   UNK d   0      -5.959   5.765  21.716  0.00  0.00    -0.650 OA
BRANCH  67  69
ATOM     69  O   UNK d   0      -4.937   4.282  23.058  0.00  0.00    -0.776 OA
ATOM     70  H   UNK d   0      -5.329   4.250  24.010  0.00  0.00     0.167 HD
ENDBRANCH  67  69
ENDBRANCH  66  67
ENDBRANCH  65  66
ENDBRANCH  14  65
ENDBRANCH   6   7
ENDBRANCH   5   6
ENDBRANCH   2   5
TORSDOF 28
ENDMDL
MODEL 13
REMARK VINA RESULT:      -9.6      2.094      5.156
REMARK  28 active torsions:
REMARK  status: ('A' for Active; 'I' for Inactive)
REMARK    1  A    between atoms: C_2  and  O_3 
REMARK    2  A    between atoms: C_2  and  C_4 
REMARK    3  A    between atoms: C_4  and  C_5 
REMARK    4  A    between atoms: C_5  and  C_6 
REMARK    5  A    between atoms: C_7  and  C_8 
REMARK    6  A    between atoms: C_8  and  C_9 
REMARK    7  A    between atoms: C_9  and  O_11 
REMARK    8  A    between atoms: C_28  and  C_29 
REMARK    9  A    between atoms: C_29  and  C_30 
REMARK   10  A    between atoms: C_30  and  O_32 
REMARK   11  A    between atoms: C_33  and  C_34 
REMARK   12  A    between atoms: C_34  and  C_35 
REMARK   13  A    between atoms: C_35  and  C_36 
REMARK   14  A    between atoms: C_36  and  O_38 
REMARK   15  A    between atoms: C_39  and  C_40 
REMARK   16  A    between atoms: C_40  and  C_41 
REMARK   17  A    between atoms: C_41  and  C_42 
REMARK   18  A    between atoms: C_42  and  O_44 
REMARK   19  A    between atoms: C_45  and  C_46 
REMARK   20  A    between atoms: C_46  and  C_47 
REMARK   21  A    between atoms: C_47  and  O_49 
REMARK   22  A    between atoms: C_50  and  C_51 
REMARK   23  A    between atoms: C_51  and  C_52 
REMARK   24  A    between atoms: C_52  and  O_54 
REMARK   25  A    between atoms: C_55  and  C_56 
REMARK   26  A    between atoms: C_56  and  C_57 
REMARK   27  A    between atoms: C_57  and  C_58 
REMARK   28  A    between atoms: C_58  and  O_60 
ROOT
ATOM      1  O   UNK d   0      -0.096   1.716  28.393  0.00  0.00    -0.650 OA
ATOM      2  C   UNK d   0       0.469   1.999  27.314  0.00  0.00     0.139 C 
ENDROOT
BRANCH   2   3
ATOM      3  O   UNK d   0       1.529   1.236  26.887  0.00  0.00    -0.776 OA
ATOM      4  H   UNK d   0       1.536   0.223  27.019  0.00  0.00     0.167 HD
ENDBRANCH   2   3
BRANCH   2   5
ATOM      5  C   UNK d   0      -0.006   3.156  26.502  0.00  0.00     0.115 C 
BRANCH   5   6
ATOM      6  C   UNK d   0       0.038   2.813  25.038  0.00  0.00     0.052 C 
BRANCH   6   7
ATOM      7  C   UNK d   0       0.319   4.014  24.167  0.00  0.00    -0.020 A 
ATOM      8  C   UNK d   0      -0.551   4.786  23.568  0.00  0.00    -0.011 A 
ATOM      9  C   UNK d   0       0.186   5.805  22.838  0.00  0.00     0.067 A 
ATOM     10  C   UNK d   0      -0.138   6.910  22.036  0.00  0.00     0.062 C 
ATOM     11  N   UNK d   0       1.500   5.574  23.045  0.00  0.00    -0.248 NA
ATOM     12  C   UNK d   0       0.712   7.949  21.642  0.00  0.00     0.041 A 
ATOM     13  N   UNK d   0       1.985   7.935  21.205  0.00  0.00    -0.355 N 
ATOM     14  C   UNK d   0       0.254   9.276  21.738  0.00  0.00    -0.022 A 
ATOM     15  C   UNK d   0       2.350   9.220  21.029  0.00  0.00     0.042 A 
ATOM     16  H   UNK d   0       2.608   7.035  21.006  0.00  0.00     0.166 HD
ATOM     17  C   UNK d   0       3.570   9.770  20.587  0.00  0.00     0.062 C 
ATOM     18  C   UNK d   0       1.291  10.089  21.354  0.00  0.00    -0.013 A 
ATOM     19  C   UNK d   0       4.849   9.438  20.953  0.00  0.00     0.067 A 
ATOM     20  N   UNK d   0       5.002   8.322  21.671  0.00  0.00    -0.248 NA
ATOM     21  C   UNK d   0       6.170  10.015  20.772  0.00  0.00    -0.011 A 
ATOM     22  C   UNK d   0       6.328   8.129  21.974  0.00  0.00     0.066 A 
ATOM     23  C   UNK d   0       6.636   6.980  22.688  0.00  0.00     0.062 C 
ATOM     24  C   UNK d   0       7.031   9.247  21.376  0.00  0.00    -0.020 A 
ATOM     25  C   UNK d   0       5.769   5.942  23.063  0.00  0.00     0.041 A 
ATOM     26  N   UNK d   0       4.508   5.957  23.511  0.00  0.00    -0.355 N 
ATOM     27  C   UNK d   0       6.228   4.611  22.962  0.00  0.00    -0.022 A 
ATOM     28  C   UNK d   0       4.145   4.677  23.696  0.00  0.00     0.042 A 
ATOM     29  H   UNK d   0       3.888   6.862  23.721  0.00  0.00     0.166 HD
ATOM     30  C   UNK d   0       2.939   4.116  24.144  0.00  0.00     0.062 C 
ATOM     31  C   UNK d   0       5.206   3.804  23.360  0.00  0.00    -0.013 A 
ATOM     32  C   UNK d   0       1.646   4.510  23.837  0.00  0.00     0.066 A 
BRANCH   8  33
ATOM     33  C   UNK d   0      -2.020   4.661  23.606  0.00  0.00     0.151 C 
BRANCH  33  34
ATOM     34  C   UNK d   0      -2.562   3.944  22.438  0.00  0.00     0.143 C 
ATOM     35  O   UNK d   0      -2.918   4.560  21.423  0.00  0.00    -0.650 OA
BRANCH  34  36
ATOM     36  O   UNK d   0      -2.675   2.574  22.479  0.00  0.00    -0.776 OA
ATOM     37  H   UNK d   0      -3.183   2.102  23.239  0.00  0.00     0.167 HD
ENDBRANCH  34  36
ENDBRANCH  33  34
ENDBRANCH   8  33
BRANCH  31  38
ATOM     38  C   UNK d   0       5.229   2.294  23.406  0.00  0.00     0.151 C 
BRANCH  38  39
ATOM     39  C   UNK d   0       5.351   1.775  24.752  0.00  0.00     0.143 C 
ATOM     40  O   UNK d   0       6.452   1.512  25.267  0.00  0.00    -0.650 OA
BRANCH  39  41
ATOM     41  O   UNK d   0       4.201   1.559  25.510  0.00  0.00    -0.776 OA
ATOM     42  H   UNK d   0       3.332   1.389  24.994  0.00  0.00     0.167 HD
ENDBRANCH  39  41
ENDBRANCH  38  39
ENDBRANCH  31  38
BRANCH  27  43
ATOM     43  C   UNK d   0       7.571   4.091  22.513  0.00  0.00     0.052 C 
BRANCH  43  44
ATOM     44  C   UNK d   0       8.693   4.505  23.408  0.00  0.00     0.115 C 
BRANCH  44  45
ATOM     45  C   UNK d   0       9.656   5.258  22.562  0.00  0.00     0.139 C 
ATOM     46  O   UNK d   0      10.280   6.215  23.083  0.00  0.00    -0.650 OA
BRANCH  45  47
ATOM     47  O   UNK d   0       9.892   4.945  21.240  0.00  0.00    -0.776 OA
ATOM     48  H   UNK d   0      10.210   5.642  20.548  0.00  0.00     0.167 HD
ENDBRANCH  45  47
ENDBRANCH  44  45
ENDBRANCH  43  44
ENDBRANCH  27  43
BRANCH  24  49
ATOM     49  C   UNK d   0       8.491   9.438  21.411  0.00  0.00     0.052 C 
BRANCH  49  50
ATOM     50  C   UNK d   0       9.123   8.891  20.157  0.00  0.00     0.115 C 
BRANCH  50  51
ATOM     51  C   UNK d   0      10.395   8.198  20.302  0.00  0.00     0.139 C 
ATOM     52  O   UNK d   0      10.742   7.257  19.549  0.00  0.00    -0.650 OA
BRANCH  51  53
ATOM     53  O   UNK d   0      11.273   8.576  21.306  0.00  0.00    -0.776 OA
ATOM     54  H   UNK d   0      11.999   7.934  21.570  0.00  0.00     0.167 HD
ENDBRANCH  51  53
ENDBRANCH  50  51
ENDBRANCH  49  50
ENDBRANCH  24  49
BRANCH  21  55
ATOM     55  C   UNK d   0       6.436  11.272  20.012  0.00  0.00     0.151 C 
BRANCH  55  56
ATOM     56  C   UNK d   0       6.619  11.019  18.575  0.00  0.00     0.143 C 
ATOM     57  O   UNK d   0       6.171  10.005  18.006  0.00  0.00    -0.650 OA
BRANCH  56  58
ATOM     58  O   UNK d   0       7.326  11.965  17.834  0.00  0.00    -0.776 OA
ATOM     59  H   UNK d   0       7.991  12.540  18.382  0.00  0.00     0.167 HD
ENDBRANCH  56  58
ENDBRANCH  55  56
ENDBRANCH  21  55
BRANCH  18  60
ATOM     60  C   UNK d   0       1.239  11.596  21.314  0.00  0.00     0.151 C 
BRANCH  60  61
ATOM     61  C   UNK d   0       2.007  12.058  22.480  0.00  0.00     0.143 C 
ATOM     62  O   UNK d   0       2.260  11.420  23.502  0.00  0.00    -0.650 OA
BRANCH  61  63
ATOM     63  O   UNK d   0       2.498  13.383  22.392  0.00  0.00    -0.776 OA
ATOM     64  H   UNK d   0       2.424  14.016  23.168  0.00  0.00     0.167 HD
ENDBRANCH  61  63
ENDBRANCH  60  61
ENDBRANCH  18  60
BRANCH  14  65
ATOM     65  C   UNK d   0      -1.106   9.823  22.068  0.00  0.00     0.052 C 
BRANCH  65  66
ATOM     66  C   UNK d   0      -1.186  10.395  23.439  0.00  0.00     0.115 C 
BRANCH  66  67
ATOM     67  C   UNK d   0      -1.558   9.554  24.541  0.00  0.00     0.139 C 
ATOM     68  O   UNK d   0      -2.221   8.480  24.296  0.00  0.00    -0.650 OA
BRANCH  67  69
ATOM     69  O   UNK d   0      -1.287   9.751  25.895  0.00  0.00    -0.776 OA
ATOM     70  H   UNK d   0      -2.046  10.177  26.446  0.00  0.00     0.167 HD
ENDBRANCH  67  69
ENDBRANCH  66  67
ENDBRANCH  65  66
ENDBRANCH  14  65
ENDBRANCH   6   7
ENDBRANCH   5   6
ENDBRANCH   2   5
TORSDOF 28
ENDMDL
MODEL 14
REMARK VINA RESULT:      -9.5      2.952      8.673
REMARK  28 active torsions:
REMARK  status: ('A' for Active; 'I' for Inactive)
REMARK    1  A    between atoms: C_2  and  O_3 
REMARK    2  A    between atoms: C_2  and  C_4 
REMARK    3  A    between atoms: C_4  and  C_5 
REMARK    4  A    between atoms: C_5  and  C_6 
REMARK    5  A    between atoms: C_7  and  C_8 
REMARK    6  A    between atoms: C_8  and  C_9 
REMARK    7  A    between atoms: C_9  and  O_11 
REMARK    8  A    between atoms: C_28  and  C_29 
REMARK    9  A    between atoms: C_29  and  C_30 
REMARK   10  A    between atoms: C_30  and  O_32 
REMARK   11  A    between atoms: C_33  and  C_34 
REMARK   12  A    between atoms: C_34  and  C_35 
REMARK   13  A    between atoms: C_35  and  C_36 
REMARK   14  A    between atoms: C_36  and  O_38 
REMARK   15  A    between atoms: C_39  and  C_40 
REMARK   16  A    between atoms: C_40  and  C_41 
REMARK   17  A    between atoms: C_41  and  C_42 
REMARK   18  A    between atoms: C_42  and  O_44 
REMARK   19  A    between atoms: C_45  and  C_46 
REMARK   20  A    between atoms: C_46  and  C_47 
REMARK   21  A    between atoms: C_47  and  O_49 
REMARK   22  A    between atoms: C_50  and  C_51 
REMARK   23  A    between atoms: C_51  and  C_52 
REMARK   24  A    between atoms: C_52  and  O_54 
REMARK   25  A    between atoms: C_55  and  C_56 
REMARK   26  A    between atoms: C_56  and  C_57 
REMARK   27  A    between atoms: C_57  and  C_58 
REMARK   28  A    between atoms: C_58  and  O_60 
ROOT
ATOM      1  O   UNK d   0      -5.691   3.267  23.305  0.00  0.00    -0.650 OA
ATOM      2  C   UNK d   0      -5.371   4.370  22.809  0.00  0.00     0.139 C 
ENDROOT
BRANCH   2   3
ATOM      3  O   UNK d   0      -6.204   4.962  21.890  0.00  0.00    -0.776 OA
ATOM      4  H   UNK d   0      -5.965   4.979  20.896  0.00  0.00     0.167 HD
ENDBRANCH   2   3
BRANCH   2   5
ATOM      5  C   UNK d   0      -4.099   5.033  23.214  0.00  0.00     0.115 C 
BRANCH   5   6
ATOM      6  C   UNK d   0      -3.117   5.007  22.075  0.00  0.00     0.052 C 
BRANCH   6   7
ATOM      7  C   UNK d   0      -1.731   4.594  22.512  0.00  0.00    -0.020 A 
ATOM      8  C   UNK d   0      -1.350   3.424  22.957  0.00  0.00    -0.011 A 
ATOM      9  C   UNK d   0       0.069   3.504  23.259  0.00  0.00     0.067 A 
ATOM     10  C   UNK d   0       1.055   2.624  23.733  0.00  0.00     0.062 C 
ATOM     11  N   UNK d   0       0.469   4.761  22.975  0.00  0.00    -0.248 NA
ATOM     12  C   UNK d   0       2.442   2.806  23.698  0.00  0.00     0.041 A 
ATOM     13  N   UNK d   0       3.200   3.887  23.964  0.00  0.00    -0.355 N 
ATOM     14  C   UNK d   0       3.258   1.744  23.270  0.00  0.00    -0.022 A 
ATOM     15  C   UNK d   0       4.476   3.539  23.708  0.00  0.00     0.042 A 
ATOM     16  H   UNK d   0       2.843   4.869  24.344  0.00  0.00     0.166 HD
ATOM     17  C   UNK d   0       5.666   4.285  23.819  0.00  0.00     0.062 C 
ATOM     18  C   UNK d   0       4.551   2.203  23.270  0.00  0.00    -0.013 A 
ATOM     19  C   UNK d   0       5.917   5.573  23.418  0.00  0.00     0.067 A 
ATOM     20  N   UNK d   0       4.865   6.307  23.048  0.00  0.00    -0.248 NA
ATOM     21  C   UNK d   0       7.097   6.406  23.261  0.00  0.00    -0.011 A 
ATOM     22  C   UNK d   0       5.271   7.560  22.660  0.00  0.00     0.066 A 
ATOM     23  C   UNK d   0       4.270   8.444  22.285  0.00  0.00     0.062 C 
ATOM     24  C   UNK d   0       6.713   7.567  22.813  0.00  0.00    -0.020 A 
ATOM     25  C   UNK d   0       2.882   8.245  22.340  0.00  0.00     0.041 A 
ATOM     26  N   UNK d   0       2.126   7.176  22.061  0.00  0.00    -0.355 N 
ATOM     27  C   UNK d   0       2.064   9.311  22.774  0.00  0.00    -0.022 A 
ATOM     28  C   UNK d   0       0.853   7.523  22.307  0.00  0.00     0.042 A 
ATOM     29  H   UNK d   0       2.485   6.193  21.669  0.00  0.00     0.166 HD
ATOM     30  C   UNK d   0      -0.341   6.794  22.192  0.00  0.00     0.062 C 
ATOM     31  C   UNK d   0       0.779   8.863  22.757  0.00  0.00    -0.013 A 
ATOM     32  C   UNK d   0      -0.567   5.467  22.520  0.00  0.00     0.066 A 
BRANCH   8  33
ATOM     33  C   UNK d   0      -2.193   2.227  23.132  0.00  0.00     0.151 C 
BRANCH  33  34
ATOM     34  C   UNK d   0      -2.642   2.045  24.524  0.00  0.00     0.143 C 
ATOM     35  O   UNK d   0      -1.859   2.205  25.472  0.00  0.00    -0.650 OA
BRANCH  34  36
ATOM     36  O   UNK d   0      -3.948   1.691  24.772  0.00  0.00    -0.776 OA
ATOM     37  H   UNK d   0      -4.182   0.937  25.431  0.00  0.00     0.167 HD
ENDBRANCH  34  36
ENDBRANCH  33  34
ENDBRANCH   8  33
BRANCH  31  38
ATOM     38  C   UNK d   0      -0.446   9.652  23.156  0.00  0.00     0.151 C 
BRANCH  38  39
ATOM     39  C   UNK d   0      -1.117  10.257  22.025  0.00  0.00     0.143 C 
ATOM     40  O   UNK d   0      -2.002   9.666  21.381  0.00  0.00    -0.650 OA
BRANCH  39  41
ATOM     41  O   UNK d   0      -0.770  11.550  21.632  0.00  0.00    -0.776 OA
ATOM     42  H   UNK d   0      -1.127  12.319  22.207  0.00  0.00     0.167 HD
ENDBRANCH  39  41
ENDBRANCH  38  39
ENDBRANCH  31  38
BRANCH  27  43
ATOM     43  C   UNK d   0       2.451  10.708  23.192  0.00  0.00     0.052 C 
BRANCH  43  44
ATOM     44  C   UNK d   0       2.750  11.609  22.038  0.00  0.00     0.115 C 
BRANCH  44  45
ATOM     45  C   UNK d   0       2.165  12.934  22.372  0.00  0.00     0.139 C 
ATOM     46  O   UNK d   0       1.370  13.454  21.550  0.00  0.00    -0.650 OA
BRANCH  45  47
ATOM     47  O   UNK d   0       2.455  13.606  23.540  0.00  0.00    -0.776 OA
ATOM     48  H   UNK d   0       1.894  14.403  23.881  0.00  0.00     0.167 HD
ENDBRANCH  45  47
ENDBRANCH  44  45
ENDBRANCH  43  44
ENDBRANCH  27  43
BRANCH  24  49
ATOM     49  C   UNK d   0       7.581   8.727  22.548  0.00  0.00     0.052 C 
BRANCH  49  50
ATOM     50  C   UNK d   0       8.144   8.653  21.152  0.00  0.00     0.115 C 
BRANCH  50  51
ATOM     51  C   UNK d   0       7.307   9.155  20.071  0.00  0.00     0.139 C 
ATOM     52  O   UNK d   0       7.181  10.378  19.826  0.00  0.00    -0.650 OA
BRANCH  51  53
ATOM     53  O   UNK d   0       6.612   8.263  19.269  0.00  0.00    -0.776 OA
ATOM     54  H   UNK d   0       7.061   7.399  19.019  0.00  0.00     0.167 HD
ENDBRANCH  51  53
ENDBRANCH  50  51
ENDBRANCH  49  50
ENDBRANCH  24  49
BRANCH  21  55
ATOM     55  C   UNK d   0       8.485   5.958  23.579  0.00  0.00     0.151 C 
BRANCH  55  56
ATOM     56  C   UNK d   0       9.133   5.313  22.427  0.00  0.00     0.143 C 
ATOM     57  O   UNK d   0      10.192   5.737  21.923  0.00  0.00    -0.650 OA
BRANCH  56  58
ATOM     58  O   UNK d   0       8.524   4.180  21.889  0.00  0.00    -0.776 OA
ATOM     59  H   UNK d   0       7.489   4.215  21.858  0.00  0.00     0.167 HD
ENDBRANCH  56  58
ENDBRANCH  55  56
ENDBRANCH  21  55
BRANCH  18  60
ATOM     60  C   UNK d   0       5.757   1.390  22.869  0.00  0.00     0.151 C 
BRANCH  60  61
ATOM     61  C   UNK d   0       6.189   0.682  24.084  0.00  0.00     0.143 C 
ATOM     62  O   UNK d   0       6.394   1.172  25.195  0.00  0.00    -0.650 OA
BRANCH  61  63
ATOM     63  O   UNK d   0       6.384  -0.712  23.933  0.00  0.00    -0.776 OA
ATOM     64  H   UNK d   0       6.254  -1.160  23.043  0.00  0.00     0.167 HD
ENDBRANCH  61  63
ENDBRANCH  60  61
ENDBRANCH  18  60
BRANCH  14  65
ATOM     65  C   UNK d   0       2.921   0.313  22.958  0.00  0.00     0.052 C 
BRANCH  65  66
ATOM     66  C   UNK d   0       2.688  -0.509  24.176  0.00  0.00     0.115 C 
BRANCH  66  67
ATOM     67  C   UNK d   0       2.870  -1.932  24.120  0.00  0.00     0.139 C 
ATOM     68  O   UNK d   0       4.034  -2.391  23.824  0.00  0.00    -0.650 OA
BRANCH  67  69
ATOM     69  O   UNK d   0       1.917  -2.923  24.352  0.00  0.00    -0.776 OA
ATOM     70  H   UNK d   0       2.219  -3.889  24.158  0.00  0.00     0.167 HD
ENDBRANCH  67  69
ENDBRANCH  66  67
ENDBRANCH  65  66
ENDBRANCH  14  65
ENDBRANCH   6   7
ENDBRANCH   5   6
ENDBRANCH   2   5
TORSDOF 28
ENDMDL
MODEL 15
REMARK VINA RESULT:      -9.5      1.617      8.006
REMARK  28 active torsions:
REMARK  status: ('A' for Active; 'I' for Inactive)
REMARK    1  A    between atoms: C_2  and  O_3 
REMARK    2  A    between atoms: C_2  and  C_4 
REMARK    3  A    between atoms: C_4  and  C_5 
REMARK    4  A    between atoms: C_5  and  C_6 
REMARK    5  A    between atoms: C_7  and  C_8 
REMARK    6  A    between atoms: C_8  and  C_9 
REMARK    7  A    between atoms: C_9  and  O_11 
REMARK    8  A    between atoms: C_28  and  C_29 
REMARK    9  A    between atoms: C_29  and  C_30 
REMARK   10  A    between atoms: C_30  and  O_32 
REMARK   11  A    between atoms: C_33  and  C_34 
REMARK   12  A    between atoms: C_34  and  C_35 
REMARK   13  A    between atoms: C_35  and  C_36 
REMARK   14  A    between atoms: C_36  and  O_38 
REMARK   15  A    between atoms: C_39  and  C_40 
REMARK   16  A    between atoms: C_40  and  C_41 
REMARK   17  A    between atoms: C_41  and  C_42 
REMARK   18  A    between atoms: C_42  and  O_44 
REMARK   19  A    between atoms: C_45  and  C_46 
REMARK   20  A    between atoms: C_46  and  C_47 
REMARK   21  A    between atoms: C_47  and  O_49 
REMARK   22  A    between atoms: C_50  and  C_51 
REMARK   23  A    between atoms: C_51  and  C_52 
REMARK   24  A    between atoms: C_52  and  O_54 
REMARK   25  A    between atoms: C_55  and  C_56 
REMARK   26  A    between atoms: C_56  and  C_57 
REMARK   27  A    between atoms: C_57  and  C_58 
REMARK   28  A    between atoms: C_58  and  O_60 
ROOT
ATOM      1  O   UNK d   0       3.600  -0.829  22.887  0.00  0.00    -0.650 OA
ATOM      2  C   UNK d   0       2.937  -0.029  23.585  0.00  0.00     0.139 C 
ENDROOT
BRANCH   2   3
ATOM      3  O   UNK d   0       2.500  -0.421  24.827  0.00  0.00    -0.776 OA
ATOM      4  H   UNK d   0       2.737  -1.341  25.204  0.00  0.00     0.167 HD
ENDBRANCH   2   3
BRANCH   2   5
ATOM      5  C   UNK d   0       2.627   1.334  23.068  0.00  0.00     0.115 C 
BRANCH   5   6
ATOM      6  C   UNK d   0       2.694   2.339  24.186  0.00  0.00     0.052 C 
BRANCH   6   7
ATOM      7  C   UNK d   0       3.662   3.461  23.901  0.00  0.00    -0.020 A 
ATOM      8  C   UNK d   0       4.965   3.440  24.018  0.00  0.00    -0.011 A 
ATOM      9  C   UNK d   0       5.467   4.751  23.642  0.00  0.00     0.067 A 
ATOM     10  C   UNK d   0       6.727   5.360  23.532  0.00  0.00     0.062 C 
ATOM     11  N   UNK d   0       4.400   5.510  23.316  0.00  0.00    -0.248 NA
ATOM     12  C   UNK d   0       7.035   6.560  22.881  0.00  0.00     0.041 A 
ATOM     13  N   UNK d   0       6.398   7.746  22.863  0.00  0.00    -0.355 N 
ATOM     14  C   UNK d   0       8.158   6.607  22.036  0.00  0.00    -0.022 A 
ATOM     15  C   UNK d   0       7.085   8.543  22.022  0.00  0.00     0.042 A 
ATOM     16  H   UNK d   0       5.493   8.022  23.448  0.00  0.00     0.166 HD
ATOM     17  C   UNK d   0       6.857   9.880  21.639  0.00  0.00     0.062 C 
ATOM     18  C   UNK d   0       8.195   7.863  21.484  0.00  0.00    -0.013 A 
ATOM     19  C   UNK d   0       5.679  10.485  21.281  0.00  0.00     0.067 A 
ATOM     20  N   UNK d   0       4.555   9.799  21.501  0.00  0.00    -0.248 NA
ATOM     21  C   UNK d   0       5.297  11.749  20.674  0.00  0.00    -0.011 A 
ATOM     22  C   UNK d   0       3.466  10.522  21.080  0.00  0.00     0.066 A 
ATOM     23  C   UNK d   0       2.223   9.940  21.284  0.00  0.00     0.062 C 
ATOM     24  C   UNK d   0       4.001  11.763  20.555  0.00  0.00    -0.020 A 
ATOM     25  C   UNK d   0       1.935   8.739  21.952  0.00  0.00     0.041 A 
ATOM     26  N   UNK d   0       2.559   7.555  21.958  0.00  0.00    -0.355 N 
ATOM     27  C   UNK d   0       0.810   8.694  22.803  0.00  0.00    -0.022 A 
ATOM     28  C   UNK d   0       1.871   6.757  22.790  0.00  0.00     0.042 A 
ATOM     29  H   UNK d   0       3.462   7.277  21.362  0.00  0.00     0.166 HD
ATOM     30  C   UNK d   0       2.081   5.422  23.172  0.00  0.00     0.062 C 
ATOM     31  C   UNK d   0       0.762   7.443  23.338  0.00  0.00    -0.013 A 
ATOM     32  C   UNK d   0       3.284   4.792  23.451  0.00  0.00     0.066 A 
BRANCH   8  33
ATOM     33  C   UNK d   0       5.796   2.303  24.456  0.00  0.00     0.151 C 
BRANCH  33  34
ATOM     34  C   UNK d   0       6.155   1.399  23.348  0.00  0.00     0.143 C 
ATOM     35  O   UNK d   0       6.181   1.805  22.178  0.00  0.00    -0.650 OA
BRANCH  34  36
ATOM     36  O   UNK d   0       6.463   0.086  23.621  0.00  0.00    -0.776 OA
ATOM     37  H   UNK d   0       7.414  -0.280  23.479  0.00  0.00     0.167 HD
ENDBRANCH  34  36
ENDBRANCH  33  34
ENDBRANCH   8  33
BRANCH  31  38
ATOM     38  C   UNK d   0      -0.265   6.933  24.321  0.00  0.00     0.151 C 
BRANCH  38  39
ATOM     39  C   UNK d   0      -1.080   5.866  23.779  0.00  0.00     0.143 C 
ATOM     40  O   UNK d   0      -1.318   4.823  24.412  0.00  0.00    -0.650 OA
BRANCH  39  41
ATOM     41  O   UNK d   0      -1.624   6.000  22.502  0.00  0.00    -0.776 OA
ATOM     42  H   UNK d   0      -1.014   5.765  21.713  0.00  0.00     0.167 HD
ENDBRANCH  39  41
ENDBRANCH  38  39
ENDBRANCH  31  38
BRANCH  27  43
ATOM     43  C   UNK d   0      -0.199   9.771  23.117  0.00  0.00     0.052 C 
BRANCH  43  44
ATOM     44  C   UNK d   0      -0.940  10.255  21.913  0.00  0.00     0.115 C 
BRANCH  44  45
ATOM     45  C   UNK d   0      -2.062   9.306  21.696  0.00  0.00     0.139 C 
ATOM     46  O   UNK d   0      -2.377   9.023  20.513  0.00  0.00    -0.650 OA
BRANCH  45  47
ATOM     47  O   UNK d   0      -2.761   8.725  22.731  0.00  0.00    -0.776 OA
ATOM     48  H   UNK d   0      -2.617   8.985  23.720  0.00  0.00     0.167 HD
ENDBRANCH  45  47
ENDBRANCH  44  45
ENDBRANCH  43  44
ENDBRANCH  27  43
BRANCH  24  49
ATOM     49  C   UNK d   0       3.189  12.871  20.024  0.00  0.00     0.052 C 
BRANCH  49  50
ATOM     50  C   UNK d   0       3.126  14.000  21.020  0.00  0.00     0.115 C 
BRANCH  50  51
ATOM     51  C   UNK d   0       2.141  13.890  22.088  0.00  0.00     0.139 C 
ATOM     52  O   UNK d   0       1.120  13.168  21.995  0.00  0.00    -0.650 OA
BRANCH  51  53
ATOM     53  O   UNK d   0       2.319  14.606  23.262  0.00  0.00    -0.776 OA
ATOM     54  H   UNK d   0       3.138  14.419  23.813  0.00  0.00     0.167 HD
ENDBRANCH  51  53
ENDBRANCH  50  51
ENDBRANCH  49  50
ENDBRANCH  24  49
BRANCH  21  55
ATOM     55  C   UNK d   0       6.267  12.813  20.280  0.00  0.00     0.151 C 
BRANCH  55  56
ATOM     56  C   UNK d   0       7.348  12.288  19.432  0.00  0.00     0.143 C 
ATOM     57  O   UNK d   0       8.512  12.124  19.846  0.00  0.00    -0.650 OA
BRANCH  56  58
ATOM     58  O   UNK d   0       7.038  11.964  18.112  0.00  0.00    -0.776 OA
ATOM     59  H   UNK d   0       6.500  11.087  17.992  0.00  0.00     0.167 HD
ENDBRANCH  56  58
ENDBRANCH  55  56
ENDBRANCH  21  55
BRANCH  18  60
ATOM     60  C   UNK d   0       9.236   8.347  20.505  0.00  0.00     0.151 C 
BRANCH  60  61
ATOM     61  C   UNK d   0      10.330   8.898  21.320  0.00  0.00     0.143 C 
ATOM     62  O   UNK d   0      10.275   9.867  22.078  0.00  0.00    -0.650 OA
BRANCH  61  63
ATOM     63  O   UNK d   0      11.569   8.223  21.200  0.00  0.00    -0.776 OA
ATOM     64  H   UNK d   0      11.849   7.532  21.873  0.00  0.00     0.167 HD
ENDBRANCH  61  63
ENDBRANCH  60  61
ENDBRANCH  18  60
BRANCH  14  65
ATOM     65  C   UNK d   0       9.244   5.598  21.790  0.00  0.00     0.052 C 
BRANCH  65  66
ATOM     66  C   UNK d   0       9.984   5.227  23.026  0.00  0.00     0.115 C 
BRANCH  66  67
ATOM     67  C   UNK d   0      10.407   6.252  23.937  0.00  0.00     0.139 C 
ATOM     68  O   UNK d   0      11.515   6.861  23.705  0.00  0.00    -0.650 OA
BRANCH  67  69
ATOM     69  O   UNK d   0       9.752   6.696  25.086  0.00  0.00    -0.776 OA
ATOM     70  H   UNK d   0       8.727   6.593  25.086  0.00  0.00     0.167 HD
ENDBRANCH  67  69
ENDBRANCH  66  67
ENDBRANCH  65  66
ENDBRANCH  14  65
ENDBRANCH   6   7
ENDBRANCH   5   6
ENDBRANCH   2   5
TORSDOF 28
ENDMDL
MODEL 16
REMARK VINA RESULT:      -9.4      3.926      9.619
REMARK  28 active torsions:
REMARK  status: ('A' for Active; 'I' for Inactive)
REMARK    1  A    between atoms: C_2  and  O_3 
REMARK    2  A    between atoms: C_2  and  C_4 
REMARK    3  A    between atoms: C_4  and  C_5 
REMARK    4  A    between atoms: C_5  and  C_6 
REMARK    5  A    between atoms: C_7  and  C_8 
REMARK    6  A    between atoms: C_8  and  C_9 
REMARK    7  A    between atoms: C_9  and  O_11 
REMARK    8  A    between atoms: C_28  and  C_29 
REMARK    9  A    between atoms: C_29  and  C_30 
REMARK   10  A    between atoms: C_30  and  O_32 
REMARK   11  A    between atoms: C_33  and  C_34 
REMARK   12  A    between atoms: C_34  and  C_35 
REMARK   13  A    between atoms: C_35  and  C_36 
REMARK   14  A    between atoms: C_36  and  O_38 
REMARK   15  A    between atoms: C_39  and  C_40 
REMARK   16  A    between atoms: C_40  and  C_41 
REMARK   17  A    between atoms: C_41  and  C_42 
REMARK   18  A    between atoms: C_42  and  O_44 
REMARK   19  A    between atoms: C_45  and  C_46 
REMARK   20  A    between atoms: C_46  and  C_47 
REMARK   21  A    between atoms: C_47  and  O_49 
REMARK   22  A    between atoms: C_50  and  C_51 
REMARK   23  A    between atoms: C_51  and  C_52 
REMARK   24  A    between atoms: C_52  and  O_54 
REMARK   25  A    between atoms: C_55  and  C_56 
REMARK   26  A    between atoms: C_56  and  C_57 
REMARK   27  A    between atoms: C_57  and  C_58 
REMARK   28  A    between atoms: C_58  and  O_60 
ROOT
ATOM      1  O   UNK d   0      -4.990   7.894  21.135  0.00  0.00    -0.650 OA
ATOM      2  C   UNK d   0      -4.407   6.813  21.374  0.00  0.00     0.139 C 
ENDROOT
BRANCH   2   3
ATOM      3  O   UNK d   0      -3.191   6.560  20.787  0.00  0.00    -0.776 OA
ATOM      4  H   UNK d   0      -2.746   7.249  20.176  0.00  0.00     0.167 HD
ENDBRANCH   2   3
BRANCH   2   5
ATOM      5  C   UNK d   0      -5.030   5.813  22.286  0.00  0.00     0.115 C 
BRANCH   5   6
ATOM      6  C   UNK d   0      -4.457   5.947  23.671  0.00  0.00     0.052 C 
BRANCH   6   7
ATOM      7  C   UNK d   0      -3.363   4.943  23.947  0.00  0.00    -0.020 A 
ATOM      8  C   UNK d   0      -3.500   3.679  24.257  0.00  0.00    -0.011 A 
ATOM      9  C   UNK d   0      -2.171   3.119  24.438  0.00  0.00     0.067 A 
ATOM     10  C   UNK d   0      -1.637   1.858  24.747  0.00  0.00     0.062 C 
ATOM     11  N   UNK d   0      -1.285   4.114  24.224  0.00  0.00    -0.248 NA
ATOM     12  C   UNK d   0      -0.309   1.443  24.605  0.00  0.00     0.041 A 
ATOM     13  N   UNK d   0       0.850   2.065  24.891  0.00  0.00    -0.355 N 
ATOM     14  C   UNK d   0      -0.046   0.191  24.019  0.00  0.00    -0.022 A 
ATOM     15  C   UNK d   0       1.841   1.244  24.495  0.00  0.00     0.042 A 
ATOM     16  H   UNK d   0       0.966   3.057  25.381  0.00  0.00     0.166 HD
ATOM     17  C   UNK d   0       3.240   1.402  24.562  0.00  0.00     0.062 C 
ATOM     18  C   UNK d   0       1.318   0.059  23.943  0.00  0.00    -0.013 A 
ATOM     19  C   UNK d   0       4.000   2.500  24.247  0.00  0.00     0.067 A 
ATOM     20  N   UNK d   0       3.348   3.646  24.035  0.00  0.00    -0.248 NA
ATOM     21  C   UNK d   0       5.415   2.771  24.056  0.00  0.00    -0.011 A 
ATOM     22  C   UNK d   0       4.233   4.646  23.718  0.00  0.00     0.066 A 
ATOM     23  C   UNK d   0       3.691   5.906  23.508  0.00  0.00     0.062 C 
ATOM     24  C   UNK d   0       5.544   4.028  23.742  0.00  0.00    -0.020 A 
ATOM     25  C   UNK d   0       2.356   6.305  23.669  0.00  0.00     0.041 A 
ATOM     26  N   UNK d   0       1.204   5.693  23.370  0.00  0.00    -0.355 N 
ATOM     27  C   UNK d   0       2.093   7.560  24.261  0.00  0.00    -0.022 A 
ATOM     28  C   UNK d   0       0.214   6.514  23.756  0.00  0.00     0.042 A 
ATOM     29  H   UNK d   0       1.089   4.701  22.868  0.00  0.00     0.166 HD
ATOM     30  C   UNK d   0      -1.181   6.373  23.688  0.00  0.00     0.062 C 
ATOM     31  C   UNK d   0       0.741   7.700  24.321  0.00  0.00    -0.013 A 
ATOM     32  C   UNK d   0      -1.938   5.237  23.924  0.00  0.00     0.066 A 
BRANCH   8  33
ATOM     33  C   UNK d   0      -4.765   2.936  24.407  0.00  0.00     0.151 C 
BRANCH  33  34
ATOM     34  C   UNK d   0      -5.023   2.016  23.285  0.00  0.00     0.143 C 
ATOM     35  O   UNK d   0      -4.636   0.839  23.325  0.00  0.00    -0.650 OA
BRANCH  34  36
ATOM     36  O   UNK d   0      -5.702   2.472  22.179  0.00  0.00    -0.776 OA
ATOM     37  H   UNK d   0      -6.287   1.842  21.613  0.00  0.00     0.167 HD
ENDBRANCH  34  36
ENDBRANCH  33  34
ENDBRANCH   8  33
BRANCH  31  38
ATOM     38  C   UNK d   0      -0.009   8.881  24.891  0.00  0.00     0.151 C 
BRANCH  38  39
ATOM     39  C   UNK d   0       0.107   8.978  26.331  0.00  0.00     0.143 C 
ATOM     40  O   UNK d   0      -0.328   8.097  27.094  0.00  0.00    -0.650 OA
BRANCH  39  41
ATOM     41  O   UNK d   0       0.726  10.092  26.896  0.00  0.00    -0.776 OA
ATOM     42  H   UNK d   0       0.392  11.011  26.588  0.00  0.00     0.167 HD
ENDBRANCH  39  41
ENDBRANCH  38  39
ENDBRANCH  31  38
BRANCH  27  43
ATOM     43  C   UNK d   0       3.060   8.606  24.757  0.00  0.00     0.052 C 
BRANCH  43  44
ATOM     44  C   UNK d   0       3.413   9.624  23.721  0.00  0.00     0.115 C 
BRANCH  44  45
ATOM     45  C   UNK d   0       3.040  10.948  24.283  0.00  0.00     0.139 C 
ATOM     46  O   UNK d   0       3.080  11.095  25.529  0.00  0.00    -0.650 OA
BRANCH  45  47
ATOM     47  O   UNK d   0       2.661  12.014  23.495  0.00  0.00    -0.776 OA
ATOM     48  H   UNK d   0       3.008  12.150  22.532  0.00  0.00     0.167 HD
ENDBRANCH  45  47
ENDBRANCH  44  45
ENDBRANCH  43  44
ENDBRANCH  27  43
BRANCH  24  49
ATOM     49  C   UNK d   0       6.813   4.736  23.498  0.00  0.00     0.052 C 
BRANCH  49  50
ATOM     50  C   UNK d   0       6.554   6.063  22.833  0.00  0.00     0.115 C 
BRANCH  50  51
ATOM     51  C   UNK d   0       7.446   6.448  21.747  0.00  0.00     0.139 C 
ATOM     52  O   UNK d   0       8.686   6.276  21.799  0.00  0.00    -0.650 OA
BRANCH  51  53
ATOM     53  O   UNK d   0       6.923   7.031  20.604  0.00  0.00    -0.776 OA
ATOM     54  H   UNK d   0       6.252   6.509  20.067  0.00  0.00     0.167 HD
ENDBRANCH  51  53
ENDBRANCH  50  51
ENDBRANCH  49  50
ENDBRANCH  24  49
BRANCH  21  55
ATOM     55  C   UNK d   0       6.490   1.747  24.211  0.00  0.00     0.151 C 
BRANCH  55  56
ATOM     56  C   UNK d   0       6.124   0.465  23.589  0.00  0.00     0.143 C 
ATOM     57  O   UNK d   0       5.885   0.350  22.371  0.00  0.00    -0.650 OA
BRANCH  56  58
ATOM     58  O   UNK d   0       6.046  -0.657  24.413  0.00  0.00    -0.776 OA
ATOM     59  H   UNK d   0       5.104  -0.853  24.795  0.00  0.00     0.167 HD
ENDBRANCH  56  58
ENDBRANCH  55  56
ENDBRANCH  21  55
BRANCH  18  60
ATOM     60  C   UNK d   0       2.040  -1.135  23.370  0.00  0.00     0.151 C 
BRANCH  60  61
ATOM     61  C   UNK d   0       2.532  -1.901  24.525  0.00  0.00     0.143 C 
ATOM     62  O   UNK d   0       1.891  -2.235  25.522  0.00  0.00    -0.650 OA
BRANCH  61  63
ATOM     63  O   UNK d   0       3.894  -2.285  24.458  0.00  0.00    -0.776 OA
ATOM     64  H   UNK d   0       4.310  -2.845  25.181  0.00  0.00     0.167 HD
ENDBRANCH  61  63
ENDBRANCH  60  61
ENDBRANCH  18  60
BRANCH  14  65
ATOM     65  C   UNK d   0      -0.976  -0.920  23.621  0.00  0.00     0.052 C 
BRANCH  65  66
ATOM     66  C   UNK d   0      -1.343  -1.807  24.757  0.00  0.00     0.115 C 
BRANCH  66  67
ATOM     67  C   UNK d   0      -1.267  -3.232  24.601  0.00  0.00     0.139 C 
ATOM     68  O   UNK d   0      -1.950  -3.784  23.662  0.00  0.00    -0.650 OA
BRANCH  67  69
ATOM     69  O   UNK d   0      -0.523  -4.135  25.360  0.00  0.00    -0.776 OA
ATOM     70  H   UNK d   0      -1.069  -4.818  25.906  0.00  0.00     0.167 HD
ENDBRANCH  67  69
ENDBRANCH  66  67
ENDBRANCH  65  66
ENDBRANCH  14  65
ENDBRANCH   6   7
ENDBRANCH   5   6
ENDBRANCH   2   5
TORSDOF 28
ENDMDL
MODEL 17
REMARK VINA RESULT:      -9.4      1.965      9.507
REMARK  28 active torsions:
REMARK  status: ('A' for Active; 'I' for Inactive)
REMARK    1  A    between atoms: C_2  and  O_3 
REMARK    2  A    between atoms: C_2  and  C_4 
REMARK    3  A    between atoms: C_4  and  C_5 
REMARK    4  A    between atoms: C_5  and  C_6 
REMARK    5  A    between atoms: C_7  and  C_8 
REMARK    6  A    between atoms: C_8  and  C_9 
REMARK    7  A    between atoms: C_9  and  O_11 
REMARK    8  A    between atoms: C_28  and  C_29 
REMARK    9  A    between atoms: C_29  and  C_30 
REMARK   10  A    between atoms: C_30  and  O_32 
REMARK   11  A    between atoms: C_33  and  C_34 
REMARK   12  A    between atoms: C_34  and  C_35 
REMARK   13  A    between atoms: C_35  and  C_36 
REMARK   14  A    between atoms: C_36  and  O_38 
REMARK   15  A    between atoms: C_39  and  C_40 
REMARK   16  A    between atoms: C_40  and  C_41 
REMARK   17  A    between atoms: C_41  and  C_42 
REMARK   18  A    between atoms: C_42  and  O_44 
REMARK   19  A    between atoms: C_45  and  C_46 
REMARK   20  A    between atoms: C_46  and  C_47 
REMARK   21  A    between atoms: C_47  and  O_49 
REMARK   22  A    between atoms: C_50  and  C_51 
REMARK   23  A    between atoms: C_51  and  C_52 
REMARK   24  A    between atoms: C_52  and  O_54 
REMARK   25  A    between atoms: C_55  and  C_56 
REMARK   26  A    between atoms: C_56  and  C_57 
REMARK   27  A    between atoms: C_57  and  C_58 
REMARK   28  A    between atoms: C_58  and  O_60 
ROOT
ATOM      1  O   UNK d   0       6.210  14.501  21.056  0.00  0.00    -0.650 OA
ATOM      2  C   UNK d   0       5.857  13.715  20.149  0.00  0.00     0.139 C 
ENDROOT
BRANCH   2   3
ATOM      3  O   UNK d   0       4.619  13.863  19.573  0.00  0.00    -0.776 OA
ATOM      4  H   UNK d   0       3.859  14.333  20.070  0.00  0.00     0.167 HD
ENDBRANCH   2   3
BRANCH   2   5
ATOM      5  C   UNK d   0       6.775  12.629  19.702  0.00  0.00     0.115 C 
BRANCH   5   6
ATOM      6  C   UNK d   0       7.508  12.052  20.883  0.00  0.00     0.052 C 
BRANCH   6   7
ATOM      7  C   UNK d   0       7.135  10.614  21.153  0.00  0.00    -0.020 A 
ATOM      8  C   UNK d   0       7.847   9.544  20.906  0.00  0.00    -0.011 A 
ATOM      9  C   UNK d   0       7.074   8.388  21.327  0.00  0.00     0.067 A 
ATOM     10  C   UNK d   0       7.266   6.998  21.356  0.00  0.00     0.062 C 
ATOM     11  N   UNK d   0       5.901   8.846  21.814  0.00  0.00    -0.248 NA
ATOM     12  C   UNK d   0       6.512   6.053  22.061  0.00  0.00     0.041 A 
ATOM     13  N   UNK d   0       5.182   5.929  22.232  0.00  0.00    -0.355 N 
ATOM     14  C   UNK d   0       7.183   5.055  22.791  0.00  0.00    -0.022 A 
ATOM     15  C   UNK d   0       4.992   4.883  23.058  0.00  0.00     0.042 A 
ATOM     16  H   UNK d   0       4.392   6.556  21.762  0.00  0.00     0.166 HD
ATOM     17  C   UNK d   0       3.802   4.320  23.560  0.00  0.00     0.062 C 
ATOM     18  C   UNK d   0       6.223   4.309  23.430  0.00  0.00    -0.013 A 
ATOM     19  C   UNK d   0       2.701   4.953  24.079  0.00  0.00     0.067 A 
ATOM     20  N   UNK d   0       2.634   6.277  23.922  0.00  0.00    -0.248 NA
ATOM     21  C   UNK d   0       1.514   4.549  24.814  0.00  0.00    -0.011 A 
ATOM     22  C   UNK d   0       1.491   6.769  24.502  0.00  0.00     0.066 A 
ATOM     23  C   UNK d   0       1.276   8.134  24.380  0.00  0.00     0.062 C 
ATOM     24  C   UNK d   0       0.812   5.618  25.063  0.00  0.00    -0.020 A 
ATOM     25  C   UNK d   0       2.038   9.064  23.656  0.00  0.00     0.041 A 
ATOM     26  N   UNK d   0       3.361   9.197  23.498  0.00  0.00    -0.355 N 
ATOM     27  C   UNK d   0       1.364  10.063  22.920  0.00  0.00    -0.022 A 
ATOM     28  C   UNK d   0       3.553  10.245  22.682  0.00  0.00     0.042 A 
ATOM     29  H   UNK d   0       4.153   8.572  23.979  0.00  0.00     0.166 HD
ATOM     30  C   UNK d   0       4.732  10.821  22.181  0.00  0.00     0.062 C 
ATOM     31  C   UNK d   0       2.315  10.814  22.300  0.00  0.00    -0.013 A 
ATOM     32  C   UNK d   0       5.876  10.177  21.737  0.00  0.00     0.066 A 
BRANCH   8  33
ATOM     33  C   UNK d   0       9.192   9.497  20.303  0.00  0.00     0.151 C 
BRANCH  33  34
ATOM     34  C   UNK d   0      10.268   9.486  21.310  0.00  0.00     0.143 C 
ATOM     35  O   UNK d   0      11.409   9.099  21.018  0.00  0.00    -0.650 OA
BRANCH  34  36
ATOM     36  O   UNK d   0       9.999   9.909  22.591  0.00  0.00    -0.776 OA
ATOM     37  H   UNK d   0      10.371  10.800  22.948  0.00  0.00     0.167 HD
ENDBRANCH  34  36
ENDBRANCH  33  34
ENDBRANCH   8  33
BRANCH  31  38
ATOM     38  C   UNK d   0       2.066  11.993  21.389  0.00  0.00     0.151 C 
BRANCH  38  39
ATOM     39  C   UNK d   0       2.226  13.265  22.060  0.00  0.00     0.143 C 
ATOM     40  O   UNK d   0       2.230  14.346  21.445  0.00  0.00    -0.650 OA
BRANCH  39  41
ATOM     41  O   UNK d   0       2.381  13.295  23.446  0.00  0.00    -0.776 OA
ATOM     42  H   UNK d   0       3.258  13.686  23.804  0.00  0.00     0.167 HD
ENDBRANCH  39  41
ENDBRANCH  38  39
ENDBRANCH  31  38
BRANCH  27  43
ATOM     43  C   UNK d   0      -0.116  10.323  22.790  0.00  0.00     0.052 C 
BRANCH  43  44
ATOM     44  C   UNK d   0      -0.743   9.608  21.638  0.00  0.00     0.115 C 
BRANCH  44  45
ATOM     45  C   UNK d   0      -2.007   9.013  22.144  0.00  0.00     0.139 C 
ATOM     46  O   UNK d   0      -2.111   8.807  23.379  0.00  0.00    -0.650 OA
BRANCH  45  47
ATOM     47  O   UNK d   0      -3.063   8.688  21.320  0.00  0.00    -0.776 OA
ATOM     48  H   UNK d   0      -3.789   8.003  21.584  0.00  0.00     0.167 HD
ENDBRANCH  45  47
ENDBRANCH  44  45
ENDBRANCH  43  44
ENDBRANCH  27  43
BRANCH  24  49
ATOM     49  C   UNK d   0      -0.487   5.661  25.754  0.00  0.00     0.052 C 
BRANCH  49  50
ATOM     50  C   UNK d   0      -0.324   5.279  27.203  0.00  0.00     0.115 C 
BRANCH  50  51
ATOM     51  C   UNK d   0      -0.025   6.350  28.144  0.00  0.00     0.139 C 
ATOM     52  O   UNK d   0      -0.093   7.563  27.832  0.00  0.00    -0.650 OA
BRANCH  51  53
ATOM     53  O   UNK d   0       0.356   6.039  29.440  0.00  0.00    -0.776 OA
ATOM     54  H   UNK d   0       0.775   5.142  29.610  0.00  0.00     0.167 HD
ENDBRANCH  51  53
ENDBRANCH  50  51
ENDBRANCH  49  50
ENDBRANCH  24  49
BRANCH  21  55
ATOM     55  C   UNK d   0       1.203   3.138  25.189  0.00  0.00     0.151 C 
BRANCH  55  56
ATOM     56  C   UNK d   0       2.059   2.656  26.284  0.00  0.00     0.143 C 
ATOM     57  O   UNK d   0       1.766   2.808  27.486  0.00  0.00    -0.650 OA
BRANCH  56  58
ATOM     58  O   UNK d   0       3.243   2.005  25.943  0.00  0.00    -0.776 OA
ATOM     59  H   UNK d   0       3.144   1.269  25.222  0.00  0.00     0.167 HD
ENDBRANCH  56  58
ENDBRANCH  55  56
ENDBRANCH  21  55
BRANCH  18  60
ATOM     60  C   UNK d   0       6.502   3.133  24.333  0.00  0.00     0.151 C 
BRANCH  60  61
ATOM     61  C   UNK d   0       6.049   1.943  23.597  0.00  0.00     0.143 C 
ATOM     62  O   UNK d   0       6.166   1.727  22.391  0.00  0.00    -0.650 OA
BRANCH  61  63
ATOM     63  O   UNK d   0       5.412   0.954  24.385  0.00  0.00    -0.776 OA
ATOM     64  H   UNK d   0       5.760   0.714  25.296  0.00  0.00     0.167 HD
ENDBRANCH  61  63
ENDBRANCH  60  61
ENDBRANCH  18  60
BRANCH  14  65
ATOM     65  C   UNK d   0       8.640   4.696  22.851  0.00  0.00     0.052 C 
BRANCH  65  66
ATOM     66  C   UNK d   0       9.382   5.448  23.899  0.00  0.00     0.115 C 
BRANCH  66  67
ATOM     67  C   UNK d   0      10.288   6.494  23.517  0.00  0.00     0.139 C 
ATOM     68  O   UNK d   0      10.401   7.518  24.286  0.00  0.00    -0.650 OA
BRANCH  67  69
ATOM     69  O   UNK d   0      11.092   6.553  22.380  0.00  0.00    -0.776 OA
ATOM     70  H   UNK d   0      11.905   5.921  22.373  0.00  0.00     0.167 HD
ENDBRANCH  67  69
ENDBRANCH  66  67
ENDBRANCH  65  66
ENDBRANCH  14  65
ENDBRANCH   6   7
ENDBRANCH   5   6
ENDBRANCH   2   5
TORSDOF 28
ENDMDL
MODEL 18
REMARK VINA RESULT:      -9.3      2.385      7.988
REMARK  28 active torsions:
REMARK  status: ('A' for Active; 'I' for Inactive)
REMARK    1  A    between atoms: C_2  and  O_3 
REMARK    2  A    between atoms: C_2  and  C_4 
REMARK    3  A    between atoms: C_4  and  C_5 
REMARK    4  A    between atoms: C_5  and  C_6 
REMARK    5  A    between atoms: C_7  and  C_8 
REMARK    6  A    between atoms: C_8  and  C_9 
REMARK    7  A    between atoms: C_9  and  O_11 
REMARK    8  A    between atoms: C_28  and  C_29 
REMARK    9  A    between atoms: C_29  and  C_30 
REMARK   10  A    between atoms: C_30  and  O_32 
REMARK   11  A    between atoms: C_33  and  C_34 
REMARK   12  A    between atoms: C_34  and  C_35 
REMARK   13  A    between atoms: C_35  and  C_36 
REMARK   14  A    between atoms: C_36  and  O_38 
REMARK   15  A    between atoms: C_39  and  C_40 
REMARK   16  A    between atoms: C_40  and  C_41 
REMARK   17  A    between atoms: C_41  and  C_42 
REMARK   18  A    between atoms: C_42  and  O_44 
REMARK   19  A    between atoms: C_45  and  C_46 
REMARK   20  A    between atoms: C_46  and  C_47 
REMARK   21  A    between atoms: C_47  and  O_49 
REMARK   22  A    between atoms: C_50  and  C_51 
REMARK   23  A    between atoms: C_51  and  C_52 
REMARK   24  A    between atoms: C_52  and  O_54 
REMARK   25  A    between atoms: C_55  and  C_56 
REMARK   26  A    between atoms: C_56  and  C_57 
REMARK   27  A    between atoms: C_57  and  C_58 
REMARK   28  A    between atoms: C_58  and  O_60 
ROOT
ATOM      1  O   UNK d   0      -3.130   8.900  22.184  0.00  0.00    -0.650 OA
ATOM      2  C   UNK d   0      -2.987   7.996  23.036  0.00  0.00     0.139 C 
ENDROOT
BRANCH   2   3
ATOM      3  O   UNK d   0      -2.412   8.297  24.248  0.00  0.00    -0.776 OA
ATOM      4  H   UNK d   0      -2.401   9.256  24.603  0.00  0.00     0.167 HD
ENDBRANCH   2   3
BRANCH   2   5
ATOM      5  C   UNK d   0      -3.437   6.607  22.737  0.00  0.00     0.115 C 
BRANCH   5   6
ATOM      6  C   UNK d   0      -2.581   6.008  21.655  0.00  0.00     0.052 C 
BRANCH   6   7
ATOM      7  C   UNK d   0      -1.245   5.528  22.169  0.00  0.00    -0.020 A 
ATOM      8  C   UNK d   0      -0.983   4.403  22.782  0.00  0.00    -0.011 A 
ATOM      9  C   UNK d   0       0.437   4.386  23.095  0.00  0.00     0.067 A 
ATOM     10  C   UNK d   0       1.329   3.491  23.705  0.00  0.00     0.062 C 
ATOM     11  N   UNK d   0       0.960   5.544  22.641  0.00  0.00    -0.248 NA
ATOM     12  C   UNK d   0       2.727   3.530  23.668  0.00  0.00     0.041 A 
ATOM     13  N   UNK d   0       3.588   4.558  23.791  0.00  0.00    -0.355 N 
ATOM     14  C   UNK d   0       3.435   2.342  23.410  0.00  0.00    -0.022 A 
ATOM     15  C   UNK d   0       4.823   4.055  23.609  0.00  0.00     0.042 A 
ATOM     16  H   UNK d   0       3.329   5.615  24.021  0.00  0.00     0.166 HD
ATOM     17  C   UNK d   0       6.081   4.689  23.633  0.00  0.00     0.062 C 
ATOM     18  C   UNK d   0       4.768   2.668  23.367  0.00  0.00    -0.013 A 
ATOM     19  C   UNK d   0       6.460   5.875  23.056  0.00  0.00     0.067 A 
ATOM     20  N   UNK d   0       5.487   6.648  22.568  0.00  0.00    -0.248 NA
ATOM     21  C   UNK d   0       7.717   6.558  22.802  0.00  0.00    -0.011 A 
ATOM     22  C   UNK d   0       6.017   7.787  22.012  0.00  0.00     0.066 A 
ATOM     23  C   UNK d   0       5.109   8.701  21.498  0.00  0.00     0.062 C 
ATOM     24  C   UNK d   0       7.451   7.674  22.187  0.00  0.00    -0.020 A 
ATOM     25  C   UNK d   0       3.708   8.649  21.557  0.00  0.00     0.041 A 
ATOM     26  N   UNK d   0       2.851   7.630  21.420  0.00  0.00    -0.355 N 
ATOM     27  C   UNK d   0       2.999   9.841  21.821  0.00  0.00    -0.022 A 
ATOM     28  C   UNK d   0       1.618   8.131  21.593  0.00  0.00     0.042 A 
ATOM     29  H   UNK d   0       3.112   6.570  21.179  0.00  0.00     0.166 HD
ATOM     30  C   UNK d   0       0.358   7.513  21.562  0.00  0.00     0.062 C 
ATOM     31  C   UNK d   0       1.676   9.523  21.846  0.00  0.00    -0.013 A 
ATOM     32  C   UNK d   0       0.000   6.276  22.073  0.00  0.00     0.066 A 
BRANCH   8  33
ATOM     33  C   UNK d   0      -1.940   3.331  23.113  0.00  0.00     0.151 C 
BRANCH  33  34
ATOM     34  C   UNK d   0      -2.267   3.281  24.549  0.00  0.00     0.143 C 
ATOM     35  O   UNK d   0      -2.618   2.220  25.085  0.00  0.00    -0.650 OA
BRANCH  34  36
ATOM     36  O   UNK d   0      -2.182   4.429  25.302  0.00  0.00    -0.776 OA
ATOM     37  H   UNK d   0      -1.815   4.411  26.263  0.00  0.00     0.167 HD
ENDBRANCH  34  36
ENDBRANCH  33  34
ENDBRANCH   8  33
BRANCH  31  38
ATOM     38  C   UNK d   0       0.534  10.477  22.107  0.00  0.00     0.151 C 
BRANCH  38  39
ATOM     39  C   UNK d   0      -0.078  10.279  23.404  0.00  0.00     0.143 C 
ATOM     40  O   UNK d   0      -1.200  10.734  23.687  0.00  0.00    -0.650 OA
BRANCH  39  41
ATOM     41  O   UNK d   0       0.605   9.554  24.381  0.00  0.00    -0.776 OA
ATOM     42  H   UNK d   0       0.677   9.984  25.309  0.00  0.00     0.167 HD
ENDBRANCH  39  41
ENDBRANCH  38  39
ENDBRANCH  31  38
BRANCH  27  43
ATOM     43  C   UNK d   0       3.521  11.238  22.042  0.00  0.00     0.052 C 
BRANCH  43  44
ATOM     44  C   UNK d   0       3.298  12.145  20.875  0.00  0.00     0.115 C 
BRANCH  44  45
ATOM     45  C   UNK d   0       4.628  12.370  20.252  0.00  0.00     0.139 C 
ATOM     46  O   UNK d   0       5.378  13.241  20.756  0.00  0.00    -0.650 OA
BRANCH  45  47
ATOM     47  O   UNK d   0       5.068  11.661  19.155  0.00  0.00    -0.776 OA
ATOM     48  H   UNK d   0       5.174  10.634  19.157  0.00  0.00     0.167 HD
ENDBRANCH  45  47
ENDBRANCH  44  45
ENDBRANCH  43  44
ENDBRANCH  27  43
BRANCH  24  49
ATOM     49  C   UNK d   0       8.431   8.694  21.775  0.00  0.00     0.052 C 
BRANCH  49  50
ATOM     50  C   UNK d   0       8.429   9.847  22.746  0.00  0.00     0.115 C 
BRANCH  50  51
ATOM     51  C   UNK d   0       9.629  10.671  22.802  0.00  0.00     0.139 C 
ATOM     52  O   UNK d   0      10.783  10.183  22.849  0.00  0.00    -0.650 OA
BRANCH  51  53
ATOM     53  O   UNK d   0       9.513  12.052  22.808  0.00  0.00    -0.776 OA
ATOM     54  H   UNK d   0       9.008  12.490  22.057  0.00  0.00     0.167 HD
ENDBRANCH  51  53
ENDBRANCH  50  51
ENDBRANCH  49  50
ENDBRANCH  24  49
BRANCH  21  55
ATOM     55  C   UNK d   0       9.053   6.026  23.205  0.00  0.00     0.151 C 
BRANCH  55  56
ATOM     56  C   UNK d   0       9.469   6.523  24.525  0.00  0.00     0.143 C 
ATOM     57  O   UNK d   0      10.363   7.379  24.673  0.00  0.00    -0.650 OA
BRANCH  56  58
ATOM     58  O   UNK d   0       8.826   6.003  25.647  0.00  0.00    -0.776 OA
ATOM     59  H   UNK d   0       8.160   5.234  25.450  0.00  0.00     0.167 HD
ENDBRANCH  56  58
ENDBRANCH  55  56
ENDBRANCH  21  55
BRANCH  18  60
ATOM     60  C   UNK d   0       5.888   1.692  23.107  0.00  0.00     0.151 C 
BRANCH  60  61
ATOM     61  C   UNK d   0       6.155   1.031  24.393  0.00  0.00     0.143 C 
ATOM     62  O   UNK d   0       6.584   1.554  25.422  0.00  0.00    -0.650 OA
BRANCH  61  63
ATOM     63  O   UNK d   0       5.879  -0.358  24.425  0.00  0.00    -0.776 OA
ATOM     64  H   UNK d   0       5.099  -0.743  23.923  0.00  0.00     0.167 HD
ENDBRANCH  61  63
ENDBRANCH  60  61
ENDBRANCH  18  60
BRANCH  14  65
ATOM     65  C   UNK d   0       2.959   0.922  23.299  0.00  0.00     0.052 C 
BRANCH  65  66
ATOM     66  C   UNK d   0       2.469   0.370  24.591  0.00  0.00     0.115 C 
BRANCH  66  67
ATOM     67  C   UNK d   0       1.746  -0.870  24.607  0.00  0.00     0.139 C 
ATOM     68  O   UNK d   0       0.859  -1.075  23.699  0.00  0.00    -0.650 OA
BRANCH  67  69
ATOM     69  O   UNK d   0       1.880  -1.925  25.509  0.00  0.00    -0.776 OA
ATOM     70  H   UNK d   0       2.651  -1.839  26.187  0.00  0.00     0.167 HD
ENDBRANCH  67  69
ENDBRANCH  66  67
ENDBRANCH  65  66
ENDBRANCH  14  65
ENDBRANCH   6   7
ENDBRANCH   5   6
ENDBRANCH   2   5
TORSDOF 28
ENDMDL
MODEL 19
REMARK VINA RESULT:      -9.3      1.883     10.049
REMARK  28 active torsions:
REMARK  status: ('A' for Active; 'I' for Inactive)
REMARK    1  A    between atoms: C_2  and  O_3 
REMARK    2  A    between atoms: C_2  and  C_4 
REMARK    3  A    between atoms: C_4  and  C_5 
REMARK    4  A    between atoms: C_5  and  C_6 
REMARK    5  A    between atoms: C_7  and  C_8 
REMARK    6  A    between atoms: C_8  and  C_9 
REMARK    7  A    between atoms: C_9  and  O_11 
REMARK    8  A    between atoms: C_28  and  C_29 
REMARK    9  A    between atoms: C_29  and  C_30 
REMARK   10  A    between atoms: C_30  and  O_32 
REMARK   11  A    between atoms: C_33  and  C_34 
REMARK   12  A    between atoms: C_34  and  C_35 
REMARK   13  A    between atoms: C_35  and  C_36 
REMARK   14  A    between atoms: C_36  and  O_38 
REMARK   15  A    between atoms: C_39  and  C_40 
REMARK   16  A    between atoms: C_40  and  C_41 
REMARK   17  A    between atoms: C_41  and  C_42 
REMARK   18  A    between atoms: C_42  and  O_44 
REMARK   19  A    between atoms: C_45  and  C_46 
REMARK   20  A    between atoms: C_46  and  C_47 
REMARK   21  A    between atoms: C_47  and  O_49 
REMARK   22  A    between atoms: C_50  and  C_51 
REMARK   23  A    between atoms: C_51  and  C_52 
REMARK   24  A    between atoms: C_52  and  O_54 
REMARK   25  A    between atoms: C_55  and  C_56 
REMARK   26  A    between atoms: C_56  and  C_57 
REMARK   27  A    between atoms: C_57  and  C_58 
REMARK   28  A    between atoms: C_58  and  O_60 
ROOT
ATOM      1  O   UNK d   0      11.349   6.479  25.791  0.00  0.00    -0.650 OA
ATOM      2  C   UNK d   0      10.149   6.262  25.510  0.00  0.00     0.139 C 
ENDROOT
BRANCH   2   3
ATOM      3  O   UNK d   0       9.255   6.007  26.522  0.00  0.00    -0.776 OA
ATOM      4  H   UNK d   0       9.303   5.140  27.062  0.00  0.00     0.167 HD
ENDBRANCH   2   3
BRANCH   2   5
ATOM      5  C   UNK d   0       9.698   6.280  24.089  0.00  0.00     0.115 C 
BRANCH   5   6
ATOM      6  C   UNK d   0       9.062   4.965  23.731  0.00  0.00     0.052 C 
BRANCH   6   7
ATOM      7  C   UNK d   0       7.558   5.055  23.633  0.00  0.00    -0.020 A 
ATOM      8  C   UNK d   0       6.687   4.099  23.830  0.00  0.00    -0.011 A 
ATOM      9  C   UNK d   0       5.361   4.653  23.614  0.00  0.00     0.067 A 
ATOM     10  C   UNK d   0       4.041   4.180  23.684  0.00  0.00     0.062 C 
ATOM     11  N   UNK d   0       5.519   5.952  23.283  0.00  0.00    -0.248 NA
ATOM     12  C   UNK d   0       2.868   4.941  23.712  0.00  0.00     0.041 A 
ATOM     13  N   UNK d   0       2.499   6.028  23.006  0.00  0.00    -0.355 N 
ATOM     14  C   UNK d   0       1.869   4.618  24.647  0.00  0.00    -0.022 A 
ATOM     15  C   UNK d   0       1.295   6.406  23.476  0.00  0.00     0.042 A 
ATOM     16  H   UNK d   0       3.070   6.506  22.180  0.00  0.00     0.166 HD
ATOM     17  C   UNK d   0       0.461   7.475  23.093  0.00  0.00     0.062 C 
ATOM     18  C   UNK d   0       0.868   5.546  24.506  0.00  0.00    -0.013 A 
ATOM     19  C   UNK d   0       0.793   8.782  22.842  0.00  0.00     0.067 A 
ATOM     20  N   UNK d   0       2.095   9.067  22.747  0.00  0.00    -0.248 NA
ATOM     21  C   UNK d   0       0.068  10.026  22.651  0.00  0.00    -0.011 A 
ATOM     22  C   UNK d   0       2.273  10.408  22.510  0.00  0.00     0.066 A 
ATOM     23  C   UNK d   0       3.582  10.837  22.351  0.00  0.00     0.062 C 
ATOM     24  C   UNK d   0       0.939  10.975  22.461  0.00  0.00    -0.020 A 
ATOM     25  C   UNK d   0       4.746  10.054  22.313  0.00  0.00     0.041 A 
ATOM     26  N   UNK d   0       5.119   8.983  23.024  0.00  0.00    -0.355 N 
ATOM     27  C   UNK d   0       5.746  10.377  21.371  0.00  0.00    -0.022 A 
ATOM     28  C   UNK d   0       6.323   8.609  22.564  0.00  0.00     0.042 A 
ATOM     29  H   UNK d   0       4.549   8.511  23.862  0.00  0.00     0.166 HD
ATOM     30  C   UNK d   0       7.168   7.554  22.941  0.00  0.00     0.062 C 
ATOM     31  C   UNK d   0       6.748   9.468  21.522  0.00  0.00    -0.013 A 
ATOM     32  C   UNK d   0       6.817   6.256  23.278  0.00  0.00     0.066 A 
BRANCH   8  33
ATOM     33  C   UNK d   0       6.975   2.701  24.199  0.00  0.00     0.151 C 
BRANCH  33  34
ATOM     34  C   UNK d   0       6.126   1.733  23.482  0.00  0.00     0.143 C 
ATOM     35  O   UNK d   0       6.080   1.723  22.243  0.00  0.00    -0.650 OA
BRANCH  34  36
ATOM     36  O   UNK d   0       5.373   0.833  24.199  0.00  0.00    -0.776 OA
ATOM     37  H   UNK d   0       4.427   0.566  23.896  0.00  0.00     0.167 HD
ENDBRANCH  34  36
ENDBRANCH  33  34
ENDBRANCH   8  33
BRANCH  31  38
ATOM     38  C   UNK d   0       8.025   9.407  20.718  0.00  0.00     0.151 C 
BRANCH  38  39
ATOM     39  C   UNK d   0       9.144  10.029  21.394  0.00  0.00     0.143 C 
ATOM     40  O   UNK d   0       9.087  11.184  21.851  0.00  0.00    -0.650 OA
BRANCH  39  41
ATOM     41  O   UNK d   0      10.335   9.319  21.546  0.00  0.00    -0.776 OA
ATOM     42  H   UNK d   0      11.115   9.591  20.941  0.00  0.00     0.167 HD
ENDBRANCH  39  41
ENDBRANCH  38  39
ENDBRANCH  31  38
BRANCH  27  43
ATOM     43  C   UNK d   0       5.784  11.494  20.358  0.00  0.00     0.052 C 
BRANCH  43  44
ATOM     44  C   UNK d   0       4.858  11.278  19.205  0.00  0.00     0.115 C 
BRANCH  44  45
ATOM     45  C   UNK d   0       5.515  10.289  18.312  0.00  0.00     0.139 C 
ATOM     46  O   UNK d   0       5.202   9.079  18.438  0.00  0.00    -0.650 OA
BRANCH  45  47
ATOM     47  O   UNK d   0       6.441  10.645  17.356  0.00  0.00    -0.776 OA
ATOM     48  H   UNK d   0       6.331  11.476  16.751  0.00  0.00     0.167 HD
ENDBRANCH  45  47
ENDBRANCH  44  45
ENDBRANCH  43  44
ENDBRANCH  27  43
BRANCH  24  49
ATOM     49  C   UNK d   0       0.637  12.390  22.189  0.00  0.00     0.052 C 
BRANCH  49  50
ATOM     50  C   UNK d   0       1.636  12.963  21.217  0.00  0.00     0.115 C 
BRANCH  50  51
ATOM     51  C   UNK d   0       2.229  14.250  21.554  0.00  0.00     0.139 C 
ATOM     52  O   UNK d   0       2.502  15.116  20.690  0.00  0.00    -0.650 OA
BRANCH  51  53
ATOM     53  O   UNK d   0       2.514  14.549  22.878  0.00  0.00    -0.776 OA
ATOM     54  H   UNK d   0       2.940  15.435  23.084  0.00  0.00     0.167 HD
ENDBRANCH  51  53
ENDBRANCH  50  51
ENDBRANCH  49  50
ENDBRANCH  24  49
BRANCH  21  55
ATOM     55  C   UNK d   0      -1.421  10.137  22.674  0.00  0.00     0.151 C 
BRANCH  55  56
ATOM     56  C   UNK d   0      -2.047   9.382  21.578  0.00  0.00     0.143 C 
ATOM     57  O   UNK d   0      -2.942   8.534  21.767  0.00  0.00    -0.650 OA
BRANCH  56  58
ATOM     58  O   UNK d   0      -1.608   9.638  20.280  0.00  0.00    -0.776 OA
ATOM     59  H   UNK d   0      -1.768   8.867  19.606  0.00  0.00     0.167 HD
ENDBRANCH  56  58
ENDBRANCH  55  56
ENDBRANCH  21  55
BRANCH  18  60
ATOM     60  C   UNK d   0      -0.401   5.581  25.322  0.00  0.00     0.151 C 
BRANCH  60  61
ATOM     61  C   UNK d   0      -0.087   6.367  26.524  0.00  0.00     0.143 C 
ATOM     62  O   UNK d   0       0.190   7.566  26.575  0.00  0.00    -0.650 OA
BRANCH  61  63
ATOM     63  O   UNK d   0      -0.112   5.644  27.741  0.00  0.00    -0.776 OA
ATOM     64  H   UNK d   0      -0.959   5.556  28.274  0.00  0.00     0.167 HD
ENDBRANCH  61  63
ENDBRANCH  60  61
ENDBRANCH  18  60
BRANCH  14  65
ATOM     65  C   UNK d   0       1.745   3.452  25.587  0.00  0.00     0.052 C 
BRANCH  65  66
ATOM     66  C   UNK d   0       1.162   2.245  24.942  0.00  0.00     0.115 C 
BRANCH  66  67
ATOM     67  C   UNK d   0       2.028   1.201  24.472  0.00  0.00     0.139 C 
ATOM     68  O   UNK d   0       2.430   1.240  23.251  0.00  0.00    -0.650 OA
BRANCH  67  69
ATOM     69  O   UNK d   0       2.511   0.106  25.187  0.00  0.00    -0.776 OA
ATOM     70  H   UNK d   0       1.965  -0.764  25.099  0.00  0.00     0.167 HD
ENDBRANCH  67  69
ENDBRANCH  66  67
ENDBRANCH  65  66
ENDBRANCH  14  65
ENDBRANCH   6   7
ENDBRANCH   5   6
ENDBRANCH   2   5
TORSDOF 28
ENDMDL
MODEL 20
REMARK VINA RESULT:      -9.2      2.849      4.720
REMARK  28 active torsions:
REMARK  status: ('A' for Active; 'I' for Inactive)
REMARK    1  A    between atoms: C_2  and  O_3 
REMARK    2  A    between atoms: C_2  and  C_4 
REMARK    3  A    between atoms: C_4  and  C_5 
REMARK    4  A    between atoms: C_5  and  C_6 
REMARK    5  A    between atoms: C_7  and  C_8 
REMARK    6  A    between atoms: C_8  and  C_9 
REMARK    7  A    between atoms: C_9  and  O_11 
REMARK    8  A    between atoms: C_28  and  C_29 
REMARK    9  A    between atoms: C_29  and  C_30 
REMARK   10  A    between atoms: C_30  and  O_32 
REMARK   11  A    between atoms: C_33  and  C_34 
REMARK   12  A    between atoms: C_34  and  C_35 
REMARK   13  A    between atoms: C_35  and  C_36 
REMARK   14  A    between atoms: C_36  and  O_38 
REMARK   15  A    between atoms: C_39  and  C_40 
REMARK   16  A    between atoms: C_40  and  C_41 
REMARK   17  A    between atoms: C_41  and  C_42 
REMARK   18  A    between atoms: C_42  and  O_44 
REMARK   19  A    between atoms: C_45  and  C_46 
REMARK   20  A    between atoms: C_46  and  C_47 
REMARK   21  A    between atoms: C_47  and  O_49 
REMARK   22  A    between atoms: C_50  and  C_51 
REMARK   23  A    between atoms: C_51  and  C_52 
REMARK   24  A    between atoms: C_52  and  O_54 
REMARK   25  A    between atoms: C_55  and  C_56 
REMARK   26  A    between atoms: C_56  and  C_57 
REMARK   27  A    between atoms: C_57  and  C_58 
REMARK   28  A    between atoms: C_58  and  O_60 
ROOT
ATOM      1  O   UNK d   0      -2.022  -1.010  23.298  0.00  0.00    -0.650 OA
ATOM      2  C   UNK d   0      -1.728   0.099  23.797  0.00  0.00     0.139 C 
ENDROOT
BRANCH   2   3
ATOM      3  O   UNK d   0      -1.081   0.142  25.009  0.00  0.00    -0.776 OA
ATOM      4  H   UNK d   0      -0.147   0.547  25.095  0.00  0.00     0.167 HD
ENDBRANCH   2   3
BRANCH   2   5
ATOM      5  C   UNK d   0      -2.078   1.359  23.082  0.00  0.00     0.115 C 
BRANCH   5   6
ATOM      6  C   UNK d   0      -2.089   2.515  24.044  0.00  0.00     0.052 C 
BRANCH   6   7
ATOM      7  C   UNK d   0      -1.201   3.652  23.597  0.00  0.00    -0.020 A 
ATOM      8  C   UNK d   0      -1.571   4.821  23.141  0.00  0.00    -0.011 A 
ATOM      9  C   UNK d   0      -0.370   5.578  22.832  0.00  0.00     0.067 A 
ATOM     10  C   UNK d   0      -0.079   6.863  22.347  0.00  0.00     0.062 C 
ATOM     11  N   UNK d   0       0.686   4.791  23.125  0.00  0.00    -0.248 NA
ATOM     12  C   UNK d   0       1.155   7.521  22.376  0.00  0.00     0.041 A 
ATOM     13  N   UNK d   0       2.401   7.080  22.115  0.00  0.00    -0.355 N 
ATOM     14  C   UNK d   0       1.201   8.864  22.792  0.00  0.00    -0.022 A 
ATOM     15  C   UNK d   0       3.236   8.107  22.362  0.00  0.00     0.042 A 
ATOM     16  H   UNK d   0       2.682   6.070  21.745  0.00  0.00     0.166 HD
ATOM     17  C   UNK d   0       4.638   8.191  22.251  0.00  0.00     0.062 C 
ATOM     18  C   UNK d   0       2.520   9.243  22.788  0.00  0.00    -0.013 A 
ATOM     19  C   UNK d   0       5.591   7.293  22.662  0.00  0.00     0.067 A 
ATOM     20  N   UNK d   0       5.162   6.087  23.043  0.00  0.00    -0.248 NA
ATOM     21  C   UNK d   0       7.036   7.302  22.820  0.00  0.00    -0.011 A 
ATOM     22  C   UNK d   0       6.220   5.308  23.439  0.00  0.00     0.066 A 
ATOM     23  C   UNK d   0       5.920   4.010  23.826  0.00  0.00     0.062 C 
ATOM     24  C   UNK d   0       7.397   6.139  23.279  0.00  0.00    -0.020 A 
ATOM     25  C   UNK d   0       4.675   3.365  23.777  0.00  0.00     0.041 A 
ATOM     26  N   UNK d   0       3.438   3.798  24.051  0.00  0.00    -0.355 N 
ATOM     27  C   UNK d   0       4.629   2.018  23.356  0.00  0.00    -0.022 A 
ATOM     28  C   UNK d   0       2.604   2.773  23.814  0.00  0.00     0.042 A 
ATOM     29  H   UNK d   0       3.158   4.810  24.433  0.00  0.00     0.166 HD
ATOM     30  C   UNK d   0       1.209   2.673  23.929  0.00  0.00     0.062 C 
ATOM     31  C   UNK d   0       3.323   1.636  23.376  0.00  0.00    -0.013 A 
ATOM     32  C   UNK d   0       0.253   3.618  23.590  0.00  0.00     0.066 A 
BRANCH   8  33
ATOM     33  C   UNK d   0      -2.953   5.304  22.960  0.00  0.00     0.151 C 
BRANCH  33  34
ATOM     34  C   UNK d   0      -3.635   4.666  21.819  0.00  0.00     0.143 C 
ATOM     35  O   UNK d   0      -3.254   4.866  20.657  0.00  0.00    -0.650 OA
BRANCH  34  36
ATOM     36  O   UNK d   0      -4.709   3.839  22.052  0.00  0.00    -0.776 OA
ATOM     37  H   UNK d   0      -5.672   4.147  21.859  0.00  0.00     0.167 HD
ENDBRANCH  34  36
ENDBRANCH  33  34
ENDBRANCH   8  33
BRANCH  31  38
ATOM     38  C   UNK d   0       2.785   0.277  22.989  0.00  0.00     0.151 C 
BRANCH  38  39
ATOM     39  C   UNK d   0       2.593  -0.595  24.128  0.00  0.00     0.143 C 
ATOM     40  O   UNK d   0       1.684  -0.415  24.958  0.00  0.00    -0.650 OA
BRANCH  39  41
ATOM     41  O   UNK d   0       3.449  -1.680  24.314  0.00  0.00    -0.776 OA
ATOM     42  H   UNK d   0       4.301  -1.698  23.746  0.00  0.00     0.167 HD
ENDBRANCH  39  41
ENDBRANCH  38  39
ENDBRANCH  31  38
BRANCH  27  43
ATOM     43  C   UNK d   0       5.756   1.103  22.947  0.00  0.00     0.052 C 
BRANCH  43  44
ATOM     44  C   UNK d   0       6.510   0.539  24.108  0.00  0.00     0.115 C 
BRANCH  44  45
ATOM     45  C   UNK d   0       6.341  -0.936  24.048  0.00  0.00     0.139 C 
ATOM     46  O   UNK d   0       6.072  -1.456  22.937  0.00  0.00    -0.650 OA
BRANCH  45  47
ATOM     47  O   UNK d   0       6.472  -1.749  25.153  0.00  0.00    -0.776 OA
ATOM     48  H   UNK d   0       5.795  -2.495  25.383  0.00  0.00     0.167 HD
ENDBRANCH  45  47
ENDBRANCH  44  45
ENDBRANCH  43  44
ENDBRANCH  27  43
BRANCH  24  49
ATOM     49  C   UNK d   0       8.778   5.703  23.549  0.00  0.00     0.052 C 
BRANCH  49  50
ATOM     50  C   UNK d   0       9.107   5.876  25.010  0.00  0.00     0.115 C 
BRANCH  50  51
ATOM     51  C   UNK d   0      10.263   6.699  25.338  0.00  0.00     0.139 C 
ATOM     52  O   UNK d   0      10.564   7.731  24.694  0.00  0.00    -0.650 OA
BRANCH  51  53
ATOM     53  O   UNK d   0      11.079   6.343  26.401  0.00  0.00    -0.776 OA
ATOM     54  H   UNK d   0      11.720   5.579  26.274  0.00  0.00     0.167 HD
ENDBRANCH  51  53
ENDBRANCH  50  51
ENDBRANCH  49  50
ENDBRANCH  24  49
BRANCH  21  55
ATOM     55  C   UNK d   0       7.904   8.471  22.491  0.00  0.00     0.151 C 
BRANCH  55  56
ATOM     56  C   UNK d   0       8.165   8.576  21.048  0.00  0.00     0.143 C 
ATOM     57  O   UNK d   0       7.815   9.561  20.368  0.00  0.00    -0.650 OA
BRANCH  56  58
ATOM     58  O   UNK d   0       8.832   7.519  20.430  0.00  0.00    -0.776 OA
ATOM     59  H   UNK d   0       9.547   7.801  19.735  0.00  0.00     0.167 HD
ENDBRANCH  56  58
ENDBRANCH  55  56
ENDBRANCH  21  55
BRANCH  18  60
ATOM     60  C   UNK d   0       3.029  10.609  23.177  0.00  0.00     0.151 C 
BRANCH  60  61
ATOM     61  C   UNK d   0       3.197  11.350  21.917  0.00  0.00     0.143 C 
ATOM     62  O   UNK d   0       2.305  11.793  21.193  0.00  0.00    -0.650 OA
BRANCH  61  63
ATOM     63  O   UNK d   0       4.538  11.564  21.518  0.00  0.00    -0.776 OA
ATOM     64  H   UNK d   0       5.294  11.070  21.957  0.00  0.00     0.167 HD
ENDBRANCH  61  63
ENDBRANCH  60  61
ENDBRANCH  18  60
BRANCH  14  65
ATOM     65  C   UNK d   0       0.096   9.836  23.093  0.00  0.00     0.052 C 
BRANCH  65  66
ATOM     66  C   UNK d   0      -0.683  10.224  21.886  0.00  0.00     0.115 C 
BRANCH  66  67
ATOM     67  C   UNK d   0      -1.868   9.492  21.538  0.00  0.00     0.139 C 
ATOM     68  O   UNK d   0      -2.082   9.226  20.298  0.00  0.00    -0.650 OA
BRANCH  67  69
ATOM     69  O   UNK d   0      -2.857   9.011  22.395  0.00  0.00    -0.776 OA
ATOM     70  H   UNK d   0      -3.570   8.407  21.962  0.00  0.00     0.167 HD
ENDBRANCH  67  69
ENDBRANCH  66  67
ENDBRANCH  65  66
ENDBRANCH  14  65
ENDBRANCH   6   7
ENDBRANCH   5   6
ENDBRANCH   2   5
TORSDOF 28
ENDMDL
