MODEL 1
REMARK VINA RESULT:      -8.9      0.000      0.000
REMARK  16 active torsions:
REMARK  status: ('A' for Active; 'I' for Inactive)
REMARK    1  A    between atoms: C_6  and  C_7 
REMARK    2  A    between atoms: C_7  and  C_8 
REMARK    3  A    between atoms: C_8  and  C_9 
REMARK    4  A    between atoms: C_9  and  O_11 
REMARK    5  A    between atoms: C_16  and  C_17 
REMARK    6  A    between atoms: C_17  and  C_18 
REMARK    7  A    between atoms: C_18  and  C_19 
REMARK    8  A    between atoms: C_19  and  O_21 
REMARK    9  A    between atoms: C_28  and  C_29 
REMARK   10  A    between atoms: C_29  and  C_30 
REMARK   11  A    between atoms: C_30  and  C_31 
REMARK   12  A    between atoms: C_31  and  O_33 
REMARK   13  A    between atoms: C_42  and  C_43 
REMARK   14  A    between atoms: C_43  and  C_44 
REMARK   15  A    between atoms: C_44  and  C_45 
REMARK   16  A    between atoms: C_45  and  O_47 
ROOT
HETATM    1  C   UNK     0     -33.279  12.005   2.961  0.00  0.00     0.051 C 
HETATM    2  C   UNK     0     -33.300  10.551   3.386  0.00  0.00    -0.031 A 
HETATM    3  C   UNK     0     -32.549   9.485   2.915  0.00  0.00     0.021 A 
HETATM    4  N   UNK     0     -32.925   8.359   3.566  0.00  0.00    -0.361 N 
HETATM    5  C   UNK     0     -33.894   8.684   4.447  0.00  0.00     0.022 A 
HETATM    6  C   UNK     0     -34.155  10.047   4.359  0.00  0.00    -0.027 A 
HETATM    7  C   UNK     0     -34.578   7.830   5.468  0.00  0.00     0.115 C 
HETATM    8  C   UNK     0     -33.699   6.877   6.258  0.00  0.00     0.021 A 
HETATM    9  N   UNK     0     -32.441   7.060   6.687  0.00  0.00    -0.361 N 
HETATM   10  C   UNK     0     -32.024   5.915   7.266  0.00  0.00     0.022 A 
HETATM   11  C   UNK     0     -33.045   4.970   7.218  0.00  0.00    -0.027 A 
HETATM   12  C   UNK     0     -34.104   5.570   6.585  0.00  0.00    -0.031 A 
HETATM   13  C   UNK     0     -35.441   4.920   6.311  0.00  0.00     0.051 C 
HETATM   14  C   UNK     0     -30.634   5.647   7.838  0.00  0.00     0.115 C 
HETATM   15  C   UNK     0     -29.516   5.755   6.814  0.00  0.00     0.021 A 
HETATM   16  N   UNK     0     -29.193   6.822   6.059  0.00  0.00    -0.361 N 
HETATM   17  C   UNK     0     -28.197   6.492   5.235  0.00  0.00     0.022 A 
HETATM   18  C   UNK     0     -27.846   5.147   5.471  0.00  0.00    -0.027 A 
HETATM   19  C   UNK     0     -28.679   4.698   6.463  0.00  0.00    -0.031 A 
HETATM   20  C   UNK     0     -28.615   3.300   7.049  0.00  0.00     0.051 C 
HETATM   21  C   UNK     0     -27.525   7.300   4.149  0.00  0.00     0.115 C 
HETATM   22  C   UNK     0     -28.378   8.285   3.383  0.00  0.00     0.022 A 
HETATM   23  N   UNK     0     -29.635   8.131   2.948  0.00  0.00    -0.361 N 
HETATM   24  C   UNK     0     -30.057   9.308   2.444  0.00  0.00     0.021 A 
HETATM   25  C   UNK     0     -29.042  10.241   2.549  0.00  0.00    -0.031 A 
HETATM   26  C   UNK     0     -29.023  11.683   2.087  0.00  0.00     0.051 C 
HETATM   27  C   UNK     0     -27.958   9.609   3.146  0.00  0.00    -0.027 A 
HETATM   28  C   UNK     0     -31.439   9.652   1.917  0.00  0.00     0.115 C 
HETATM   29  H   UNK     0     -32.532   7.334   3.370  0.00  0.00     0.165 HD
HETATM   30  H   UNK     0     -31.861   8.014   6.626  0.00  0.00     0.165 HD
HETATM   31  H   UNK     0     -29.646   7.845   6.142  0.00  0.00     0.165 HD
HETATM   32  H   UNK     0     -30.223   7.176   2.953  0.00  0.00     0.165 HD
ENDROOT
BRANCH   6  33
HETATM   33  C   UNK     0     -35.144  10.897   5.117  0.00  0.00     0.051 C 
BRANCH  33  34
HETATM   34  C   UNK     0     -36.518  10.797   4.499  0.00  0.00     0.114 C 
BRANCH  34  35
HETATM   35  C   UNK     0     -37.507  10.761   5.615  0.00  0.00     0.139 C 
HETATM   36  O   UNK     0     -37.243  10.130   6.680  0.00  0.00    -0.650 OA
BRANCH  35  37
HETATM   37  O   UNK     0     -38.738  11.403   5.546  0.00  0.00    -0.776 OA
HETATM   38  H   UNK     0     -39.091  11.791   4.687  0.00  0.00     0.167 HD
ENDBRANCH  35  37
ENDBRANCH  34  35
ENDBRANCH  33  34
ENDBRANCH   6  33
BRANCH  27  39
HETATM   39  C   UNK     0     -26.647  10.280   3.361  0.00  0.00     0.051 C 
BRANCH  39  40
HETATM   40  C   UNK     0     -26.457  11.056   4.586  0.00  0.00     0.114 C 
BRANCH  40  41
HETATM   41  C   UNK     0     -25.705  10.547   5.712  0.00  0.00     0.139 C 
HETATM   42  O   UNK     0     -25.498   9.342   5.907  0.00  0.00    -0.650 OA
BRANCH  41  43
HETATM   43  O   UNK     0     -25.167  11.467   6.656  0.00  0.00    -0.776 OA
HETATM   44  H   UNK     0     -25.793  11.700   7.418  0.00  0.00     0.167 HD
ENDBRANCH  41  43
ENDBRANCH  40  41
ENDBRANCH  39  40
ENDBRANCH  27  39
BRANCH  11  45
HETATM   45  C   UNK     0     -33.048   3.559   7.742  0.00  0.00     0.051 C 
BRANCH  45  46
HETATM   46  C   UNK     0     -32.596   3.435   9.151  0.00  0.00     0.114 C 
BRANCH  46  47
HETATM   47  C   UNK     0     -31.699   2.246   9.223  0.00  0.00     0.139 C 
HETATM   48  O   UNK     0     -30.615   2.356   9.814  0.00  0.00    -0.650 OA
BRANCH  47  49
HETATM   49  O   UNK     0     -32.062   1.055   8.647  0.00  0.00    -0.776 OA
HETATM   50  H   UNK     0     -33.032   0.855   8.374  0.00  0.00     0.167 HD
ENDBRANCH  47  49
ENDBRANCH  46  47
ENDBRANCH  45  46
ENDBRANCH  11  45
BRANCH  18  51
HETATM   51  C   UNK     0     -26.763   4.341   4.802  0.00  0.00     0.051 C 
BRANCH  51  52
HETATM   52  C   UNK     0     -27.292   3.979   3.422  0.00  0.00     0.114 C 
BRANCH  52  53
HETATM   53  C   UNK     0     -28.072   2.726   3.444  0.00  0.00     0.139 C 
HETATM   54  O   UNK     0     -29.084   2.612   2.735  0.00  0.00    -0.650 OA
BRANCH  53  55
HETATM   55  O   UNK     0     -27.673   1.692   4.255  0.00  0.00    -0.776 OA
HETATM   56  H   UNK     0     -27.020   1.752   5.000  0.00  0.00     0.167 HD
ENDBRANCH  53  55
ENDBRANCH  52  53
ENDBRANCH  51  52
ENDBRANCH  18  51
TORSDOF 16
ENDMDL
MODEL 2
REMARK VINA RESULT:      -8.5     23.000     27.842
REMARK  16 active torsions:
REMARK  status: ('A' for Active; 'I' for Inactive)
REMARK    1  A    between atoms: C_6  and  C_7 
REMARK    2  A    between atoms: C_7  and  C_8 
REMARK    3  A    between atoms: C_8  and  C_9 
REMARK    4  A    between atoms: C_9  and  O_11 
REMARK    5  A    between atoms: C_16  and  C_17 
REMARK    6  A    between atoms: C_17  and  C_18 
REMARK    7  A    between atoms: C_18  and  C_19 
REMARK    8  A    between atoms: C_19  and  O_21 
REMARK    9  A    between atoms: C_28  and  C_29 
REMARK   10  A    between atoms: C_29  and  C_30 
REMARK   11  A    between atoms: C_30  and  C_31 
REMARK   12  A    between atoms: C_31  and  O_33 
REMARK   13  A    between atoms: C_42  and  C_43 
REMARK   14  A    between atoms: C_43  and  C_44 
REMARK   15  A    between atoms: C_44  and  C_45 
REMARK   16  A    between atoms: C_45  and  O_47 
ROOT
HETATM    1  C   UNK     0     -23.265  23.641  15.630  0.00  0.00     0.051 C 
HETATM    2  C   UNK     0     -22.421  24.709  16.295  0.00  0.00    -0.031 A 
HETATM    3  C   UNK     0     -22.122  25.991  15.861  0.00  0.00     0.021 A 
HETATM    4  N   UNK     0     -21.305  26.583  16.764  0.00  0.00    -0.361 N 
HETATM    5  C   UNK     0     -21.084  25.710  17.768  0.00  0.00     0.022 A 
HETATM    6  C   UNK     0     -21.765  24.526  17.505  0.00  0.00    -0.027 A 
HETATM    7  C   UNK     0     -20.333  25.902  19.049  0.00  0.00     0.115 C 
HETATM    8  C   UNK     0     -20.551  27.217  19.777  0.00  0.00     0.021 A 
HETATM    9  N   UNK     0     -21.677  27.941  19.875  0.00  0.00    -0.361 N 
HETATM   10  C   UNK     0     -21.386  29.081  20.537  0.00  0.00     0.022 A 
HETATM   11  C   UNK     0     -20.038  29.087  20.882  0.00  0.00    -0.027 A 
HETATM   12  C   UNK     0     -19.506  27.915  20.407  0.00  0.00    -0.031 A 
HETATM   13  C   UNK     0     -18.064  27.486  20.555  0.00  0.00     0.051 C 
HETATM   14  C   UNK     0     -22.350  30.229  20.822  0.00  0.00     0.115 C 
HETATM   15  C   UNK     0     -22.919  30.880  19.572  0.00  0.00     0.021 A 
HETATM   16  N   UNK     0     -23.630  30.293  18.591  0.00  0.00    -0.361 N 
HETATM   17  C   UNK     0     -23.884  31.190  17.636  0.00  0.00     0.022 A 
HETATM   18  C   UNK     0     -23.319  32.423  18.017  0.00  0.00    -0.027 A 
HETATM   19  C   UNK     0     -22.719  32.216  19.232  0.00  0.00    -0.031 A 
HETATM   20  C   UNK     0     -22.017  33.305  20.023  0.00  0.00     0.051 C 
HETATM   21  C   UNK     0     -24.578  31.021  16.304  0.00  0.00     0.115 C 
HETATM   22  C   UNK     0     -24.405  29.702  15.589  0.00  0.00     0.022 A 
HETATM   23  N   UNK     0     -23.297  28.957  15.478  0.00  0.00    -0.361 N 
HETATM   24  C   UNK     0     -23.627  27.792  14.884  0.00  0.00     0.021 A 
HETATM   25  C   UNK     0     -24.979  27.792  14.597  0.00  0.00    -0.031 A 
HETATM   26  C   UNK     0     -25.804  26.730  13.900  0.00  0.00     0.051 C 
HETATM   27  C   UNK     0     -25.498  29.003  15.038  0.00  0.00    -0.027 A 
HETATM   28  C   UNK     0     -22.731  26.594  14.627  0.00  0.00     0.115 C 
HETATM   29  H   UNK     0     -20.858  27.600  16.666  0.00  0.00     0.165 HD
HETATM   30  H   UNK     0     -22.690  27.627  19.522  0.00  0.00     0.165 HD
HETATM   31  H   UNK     0     -24.002  29.235  18.594  0.00  0.00     0.165 HD
HETATM   32  H   UNK     0     -22.262  29.265  15.779  0.00  0.00     0.165 HD
ENDROOT
BRANCH   6  33
HETATM   33  C   UNK     0     -21.837  23.250  18.305  0.00  0.00     0.051 C 
BRANCH  33  34
HETATM   34  C   UNK     0     -21.131  22.126  17.584  0.00  0.00     0.114 C 
BRANCH  34  35
HETATM   35  C   UNK     0     -19.708  22.133  18.029  0.00  0.00     0.139 C 
HETATM   36  O   UNK     0     -19.418  22.402  19.232  0.00  0.00    -0.650 OA
BRANCH  35  37
HETATM   37  O   UNK     0     -18.653  21.850  17.171  0.00  0.00    -0.776 OA
HETATM   38  H   UNK     0     -18.775  21.802  16.172  0.00  0.00     0.167 HD
ENDBRANCH  35  37
ENDBRANCH  34  35
ENDBRANCH  33  34
ENDBRANCH   6  33
BRANCH  27  39
HETATM   39  C   UNK     0     -26.919  29.398  14.836  0.00  0.00     0.051 C 
BRANCH  39  40
HETATM   40  C   UNK     0     -27.869  29.150  15.919  0.00  0.00     0.114 C 
BRANCH  40  41
HETATM   41  C   UNK     0     -27.824  29.881  17.166  0.00  0.00     0.139 C 
HETATM   42  O   UNK     0     -27.229  29.477  18.174  0.00  0.00    -0.650 OA
BRANCH  41  43
HETATM   43  O   UNK     0     -28.495  31.133  17.257  0.00  0.00    -0.776 OA
HETATM   44  H   UNK     0     -27.940  31.877  17.664  0.00  0.00     0.167 HD
ENDBRANCH  41  43
ENDBRANCH  40  41
ENDBRANCH  39  40
ENDBRANCH  27  39
BRANCH  11  45
HETATM   45  C   UNK     0     -19.262  30.137  21.631  0.00  0.00     0.051 C 
BRANCH  45  46
HETATM   46  C   UNK     0     -19.346  30.016  23.108  0.00  0.00     0.114 C 
BRANCH  46  47
HETATM   47  C   UNK     0     -19.499  31.394  23.657  0.00  0.00     0.139 C 
HETATM   48  O   UNK     0     -20.594  31.960  23.539  0.00  0.00    -0.650 OA
BRANCH  47  49
HETATM   49  O   UNK     0     -18.449  32.023  24.278  0.00  0.00    -0.776 OA
HETATM   50  H   UNK     0     -18.249  31.892  25.277  0.00  0.00     0.167 HD
ENDBRANCH  47  49
ENDBRANCH  46  47
ENDBRANCH  45  46
ENDBRANCH  11  45
BRANCH  18  51
HETATM   51  C   UNK     0     -23.368  33.733  17.275  0.00  0.00     0.051 C 
BRANCH  51  52
HETATM   52  C   UNK     0     -22.046  33.850  16.530  0.00  0.00     0.114 C 
BRANCH  52  53
HETATM   53  C   UNK     0     -21.299  35.060  16.922  0.00  0.00     0.139 C 
HETATM   54  O   UNK     0     -21.791  36.184  16.731  0.00  0.00    -0.650 OA
BRANCH  53  55
HETATM   55  O   UNK     0     -20.057  34.936  17.497  0.00  0.00    -0.776 OA
HETATM   56  H   UNK     0     -19.821  35.165  18.433  0.00  0.00     0.167 HD
ENDBRANCH  53  55
ENDBRANCH  52  53
ENDBRANCH  51  52
ENDBRANCH  18  51
TORSDOF 16
ENDMDL
MODEL 3
REMARK VINA RESULT:      -8.3      1.323      1.593
REMARK  16 active torsions:
REMARK  status: ('A' for Active; 'I' for Inactive)
REMARK    1  A    between atoms: C_6  and  C_7 
REMARK    2  A    between atoms: C_7  and  C_8 
REMARK    3  A    between atoms: C_8  and  C_9 
REMARK    4  A    between atoms: C_9  and  O_11 
REMARK    5  A    between atoms: C_16  and  C_17 
REMARK    6  A    between atoms: C_17  and  C_18 
REMARK    7  A    between atoms: C_18  and  C_19 
REMARK    8  A    between atoms: C_19  and  O_21 
REMARK    9  A    between atoms: C_28  and  C_29 
REMARK   10  A    between atoms: C_29  and  C_30 
REMARK   11  A    between atoms: C_30  and  C_31 
REMARK   12  A    between atoms: C_31  and  O_33 
REMARK   13  A    between atoms: C_42  and  C_43 
REMARK   14  A    between atoms: C_43  and  C_44 
REMARK   15  A    between atoms: C_44  and  C_45 
REMARK   16  A    between atoms: C_45  and  O_47 
ROOT
HETATM    1  C   UNK     0     -33.048  11.023   2.601  0.00  0.00     0.051 C 
HETATM    2  C   UNK     0     -33.081   9.629   3.194  0.00  0.00    -0.031 A 
HETATM    3  C   UNK     0     -32.467   8.469   2.748  0.00  0.00     0.021 A 
HETATM    4  N   UNK     0     -32.799   7.449   3.575  0.00  0.00    -0.361 N 
HETATM    5  C   UNK     0     -33.604   7.935   4.542  0.00  0.00     0.022 A 
HETATM    6  C   UNK     0     -33.804   9.296   4.332  0.00  0.00    -0.027 A 
HETATM    7  C   UNK     0     -34.170   7.247   5.745  0.00  0.00     0.115 C 
HETATM    8  C   UNK     0     -33.232   6.327   6.507  0.00  0.00     0.021 A 
HETATM    9  N   UNK     0     -31.916   6.467   6.724  0.00  0.00    -0.361 N 
HETATM   10  C   UNK     0     -31.477   5.365   7.368  0.00  0.00     0.022 A 
HETATM   11  C   UNK     0     -32.542   4.495   7.581  0.00  0.00    -0.027 A 
HETATM   12  C   UNK     0     -33.651   5.095   7.041  0.00  0.00    -0.031 A 
HETATM   13  C   UNK     0     -35.047   4.514   7.043  0.00  0.00     0.051 C 
HETATM   14  C   UNK     0     -30.033   5.065   7.760  0.00  0.00     0.115 C 
HETATM   15  C   UNK     0     -29.079   4.983   6.579  0.00  0.00     0.021 A 
HETATM   16  N   UNK     0     -28.819   5.936   5.665  0.00  0.00    -0.361 N 
HETATM   17  C   UNK     0     -27.978   5.449   4.750  0.00  0.00     0.022 A 
HETATM   18  C   UNK     0     -27.667   4.117   5.090  0.00  0.00    -0.027 A 
HETATM   19  C   UNK     0     -28.362   3.838   6.238  0.00  0.00    -0.031 A 
HETATM   20  C   UNK     0     -28.283   2.511   6.970  0.00  0.00     0.051 C 
HETATM   21  C   UNK     0     -27.437   6.086   3.490  0.00  0.00     0.115 C 
HETATM   22  C   UNK     0     -28.343   7.038   2.745  0.00  0.00     0.022 A 
HETATM   23  N   UNK     0     -29.658   6.925   2.518  0.00  0.00    -0.361 N 
HETATM   24  C   UNK     0     -30.088   8.068   1.945  0.00  0.00     0.021 A 
HETATM   25  C   UNK     0     -29.022   8.933   1.791  0.00  0.00    -0.031 A 
HETATM   26  C   UNK     0     -28.997  10.312   1.164  0.00  0.00     0.051 C 
HETATM   27  C   UNK     0     -27.894   8.296   2.295  0.00  0.00    -0.027 A 
HETATM   28  C   UNK     0     -31.515   8.448   1.587  0.00  0.00     0.115 C 
HETATM   29  H   UNK     0     -32.495   6.384   3.446  0.00  0.00     0.165 HD
HETATM   30  H   UNK     0     -31.302   7.366   6.467  0.00  0.00     0.165 HD
HETATM   31  H   UNK     0     -29.199   6.991   5.691  0.00  0.00     0.165 HD
HETATM   32  H   UNK     0     -30.288   6.020   2.721  0.00  0.00     0.165 HD
ENDROOT
BRANCH   6  33
HETATM   33  C   UNK     0     -34.619  10.289   5.120  0.00  0.00     0.051 C 
BRANCH  33  34
HETATM   34  C   UNK     0     -36.042  10.334   4.614  0.00  0.00     0.114 C 
BRANCH  34  35
HETATM   35  C   UNK     0     -36.936  10.436   5.803  0.00  0.00     0.139 C 
HETATM   36  O   UNK     0     -38.145  10.781   5.664  0.00  0.00    -0.650 OA
BRANCH  35  37
HETATM   37  O   UNK     0     -36.500  10.160   7.094  0.00  0.00    -0.776 OA
HETATM   38  H   UNK     0     -35.581   9.791   7.280  0.00  0.00     0.167 HD
ENDBRANCH  35  37
ENDBRANCH  34  35
ENDBRANCH  33  34
ENDBRANCH   6  33
BRANCH  27  39
HETATM   39  C   UNK     0     -26.532   8.893   2.237  0.00  0.00     0.051 C 
BRANCH  39  40
HETATM   40  C   UNK     0     -26.204   9.965   3.176  0.00  0.00     0.114 C 
BRANCH  40  41
HETATM   41  C   UNK     0     -26.605   9.924   4.564  0.00  0.00     0.139 C 
HETATM   42  O   UNK     0     -26.213   9.064   5.364  0.00  0.00    -0.650 OA
BRANCH  41  43
HETATM   43  O   UNK     0     -27.500  10.917   5.054  0.00  0.00    -0.776 OA
HETATM   44  H   UNK     0     -27.419  11.100   6.047  0.00  0.00     0.167 HD
ENDBRANCH  41  43
ENDBRANCH  40  41
ENDBRANCH  39  40
ENDBRANCH  27  39
BRANCH  11  45
HETATM   45  C   UNK     0     -32.540   3.153   8.262  0.00  0.00     0.051 C 
BRANCH  45  46
HETATM   46  C   UNK     0     -31.705   3.098   9.489  0.00  0.00     0.114 C 
BRANCH  46  47
HETATM   47  C   UNK     0     -31.330   1.671   9.704  0.00  0.00     0.139 C 
HETATM   48  O   UNK     0     -30.876   1.338  10.808  0.00  0.00    -0.650 OA
BRANCH  47  49
HETATM   49  O   UNK     0     -31.482   0.746   8.702  0.00  0.00    -0.776 OA
HETATM   50  H   UNK     0     -30.691   0.425   8.131  0.00  0.00     0.167 HD
ENDBRANCH  47  49
ENDBRANCH  46  47
ENDBRANCH  45  46
ENDBRANCH  11  45
BRANCH  18  51
HETATM   51  C   UNK     0     -26.742   3.169   4.371  0.00  0.00     0.051 C 
BRANCH  51  52
HETATM   52  C   UNK     0     -25.844   2.560   5.437  0.00  0.00     0.114 C 
BRANCH  52  53
HETATM   53  C   UNK     0     -25.472   1.169   5.113  0.00  0.00     0.139 C 
HETATM   54  O   UNK     0     -26.354   0.327   4.884  0.00  0.00    -0.650 OA
BRANCH  53  55
HETATM   55  O   UNK     0     -24.146   0.814   5.068  0.00  0.00    -0.776 OA
HETATM   56  H   UNK     0     -23.642   0.346   5.785  0.00  0.00     0.167 HD
ENDBRANCH  53  55
ENDBRANCH  52  53
ENDBRANCH  51  52
ENDBRANCH  18  51
TORSDOF 16
ENDMDL
MODEL 4
REMARK VINA RESULT:      -8.2     21.734     26.509
REMARK  16 active torsions:
REMARK  status: ('A' for Active; 'I' for Inactive)
REMARK    1  A    between atoms: C_6  and  C_7 
REMARK    2  A    between atoms: C_7  and  C_8 
REMARK    3  A    between atoms: C_8  and  C_9 
REMARK    4  A    between atoms: C_9  and  O_11 
REMARK    5  A    between atoms: C_16  and  C_17 
REMARK    6  A    between atoms: C_17  and  C_18 
REMARK    7  A    between atoms: C_18  and  C_19 
REMARK    8  A    between atoms: C_19  and  O_21 
REMARK    9  A    between atoms: C_28  and  C_29 
REMARK   10  A    between atoms: C_29  and  C_30 
REMARK   11  A    between atoms: C_30  and  C_31 
REMARK   12  A    between atoms: C_31  and  O_33 
REMARK   13  A    between atoms: C_42  and  C_43 
REMARK   14  A    between atoms: C_43  and  C_44 
REMARK   15  A    between atoms: C_44  and  C_45 
REMARK   16  A    between atoms: C_45  and  O_47 
ROOT
HETATM    1  C   UNK     0     -19.444  26.122  21.612  0.00  0.00     0.051 C 
HETATM    2  C   UNK     0     -20.020  27.155  20.666  0.00  0.00    -0.031 A 
HETATM    3  C   UNK     0     -20.161  27.104  19.288  0.00  0.00     0.021 A 
HETATM    4  N   UNK     0     -20.700  28.269  18.856  0.00  0.00    -0.361 N 
HETATM    5  C   UNK     0     -20.913  29.058  19.929  0.00  0.00     0.022 A 
HETATM    6  C   UNK     0     -20.496  28.393  21.077  0.00  0.00    -0.027 A 
HETATM    7  C   UNK     0     -21.570  30.400  20.008  0.00  0.00     0.115 C 
HETATM    8  C   UNK     0     -22.831  30.591  19.184  0.00  0.00     0.021 A 
HETATM    9  N   UNK     0     -23.799  29.700  18.918  0.00  0.00    -0.361 N 
HETATM   10  C   UNK     0     -24.678  30.277  18.071  0.00  0.00     0.022 A 
HETATM   11  C   UNK     0     -24.271  31.578  17.792  0.00  0.00    -0.027 A 
HETATM   12  C   UNK     0     -23.108  31.783  18.490  0.00  0.00    -0.031 A 
HETATM   13  C   UNK     0     -22.304  33.064  18.493  0.00  0.00     0.051 C 
HETATM   14  C   UNK     0     -25.904  29.610  17.453  0.00  0.00     0.115 C 
HETATM   15  C   UNK     0     -25.577  28.403  16.588  0.00  0.00     0.021 A 
HETATM   16  N   UNK     0     -24.932  27.280  16.955  0.00  0.00    -0.361 N 
HETATM   17  C   UNK     0     -24.782  26.492  15.888  0.00  0.00     0.022 A 
HETATM   18  C   UNK     0     -25.366  27.128  14.774  0.00  0.00    -0.027 A 
HETATM   19  C   UNK     0     -25.861  28.323  15.226  0.00  0.00    -0.031 A 
HETATM   20  C   UNK     0     -26.609  29.312  14.350  0.00  0.00     0.051 C 
HETATM   21  C   UNK     0     -24.069  25.166  15.752  0.00  0.00     0.115 C 
HETATM   22  C   UNK     0     -22.838  24.945  16.599  0.00  0.00     0.022 A 
HETATM   23  N   UNK     0     -21.860  25.815  16.884  0.00  0.00    -0.361 N 
HETATM   24  C   UNK     0     -21.039  25.246  17.789  0.00  0.00     0.021 A 
HETATM   25  C   UNK     0     -21.492  23.976  18.086  0.00  0.00    -0.031 A 
HETATM   26  C   UNK     0     -20.887  22.939  19.010  0.00  0.00     0.051 C 
HETATM   27  C   UNK     0     -22.643  23.760  17.337  0.00  0.00    -0.027 A 
HETATM   28  C   UNK     0     -19.843  25.875  18.483  0.00  0.00     0.115 C 
HETATM   29  H   UNK     0     -20.888  28.541  17.791  0.00  0.00     0.165 HD
HETATM   30  H   UNK     0     -23.891  28.680  19.365  0.00  0.00     0.165 HD
HETATM   31  H   UNK     0     -24.617  27.016  17.998  0.00  0.00     0.165 HD
HETATM   32  H   UNK     0     -21.717  26.823  16.416  0.00  0.00     0.165 HD
ENDROOT
BRANCH   6  33
HETATM   33  C   UNK     0     -20.514  28.840  22.517  0.00  0.00     0.051 C 
BRANCH  33  34
HETATM   34  C   UNK     0     -19.207  29.499  22.889  0.00  0.00     0.114 C 
BRANCH  34  35
HETATM   35  C   UNK     0     -19.416  30.974  22.826  0.00  0.00     0.139 C 
HETATM   36  O   UNK     0     -20.486  31.485  23.268  0.00  0.00    -0.650 OA
BRANCH  35  37
HETATM   37  O   UNK     0     -18.471  31.843  22.295  0.00  0.00    -0.776 OA
HETATM   38  H   UNK     0     -18.690  32.800  22.073  0.00  0.00     0.167 HD
ENDBRANCH  35  37
ENDBRANCH  34  35
ENDBRANCH  33  34
ENDBRANCH   6  33
BRANCH  27  39
HETATM   39  C   UNK     0     -23.380  22.467  17.337  0.00  0.00     0.051 C 
BRANCH  39  40
HETATM   40  C   UNK     0     -23.048  21.478  16.312  0.00  0.00     0.114 C 
BRANCH  40  41
HETATM   41  C   UNK     0     -22.701  21.856  14.960  0.00  0.00     0.139 C 
HETATM   42  O   UNK     0     -23.470  21.733  13.997  0.00  0.00    -0.650 OA
BRANCH  41  43
HETATM   43  O   UNK     0     -21.411  22.401  14.704  0.00  0.00    -0.776 OA
HETATM   44  H   UNK     0     -20.642  21.798  14.970  0.00  0.00     0.167 HD
ENDBRANCH  41  43
ENDBRANCH  40  41
ENDBRANCH  39  40
ENDBRANCH  27  39
BRANCH  11  45
HETATM   45  C   UNK     0     -24.933  32.604  16.911  0.00  0.00     0.051 C 
BRANCH  45  46
HETATM   46  C   UNK     0     -24.588  32.480  15.472  0.00  0.00     0.114 C 
BRANCH  46  47
HETATM   47  C   UNK     0     -24.152  33.827  15.005  0.00  0.00     0.139 C 
HETATM   48  O   UNK     0     -23.023  34.227  15.320  0.00  0.00    -0.650 OA
BRANCH  47  49
HETATM   49  O   UNK     0     -24.983  34.610  14.243  0.00  0.00    -0.776 OA
HETATM   50  H   UNK     0     -25.247  35.561  14.526  0.00  0.00     0.167 HD
ENDBRANCH  47  49
ENDBRANCH  46  47
ENDBRANCH  45  46
ENDBRANCH  11  45
BRANCH  18  51
HETATM   51  C   UNK     0     -25.465  26.614  13.361  0.00  0.00     0.051 C 
BRANCH  51  52
HETATM   52  C   UNK     0     -26.692  25.715  13.320  0.00  0.00     0.114 C 
BRANCH  52  53
HETATM   53  C   UNK     0     -26.326  24.294  13.165  0.00  0.00     0.139 C 
HETATM   54  O   UNK     0     -27.082  23.407  13.594  0.00  0.00    -0.650 OA
BRANCH  53  55
HETATM   55  O   UNK     0     -25.145  23.959  12.547  0.00  0.00    -0.776 OA
HETATM   56  H   UNK     0     -24.337  23.592  12.992  0.00  0.00     0.167 HD
ENDBRANCH  53  55
ENDBRANCH  52  53
ENDBRANCH  51  52
ENDBRANCH  18  51
TORSDOF 16
ENDMDL
MODEL 5
REMARK VINA RESULT:      -8.0     15.999     20.257
REMARK  16 active torsions:
REMARK  status: ('A' for Active; 'I' for Inactive)
REMARK    1  A    between atoms: C_6  and  C_7 
REMARK    2  A    between atoms: C_7  and  C_8 
REMARK    3  A    between atoms: C_8  and  C_9 
REMARK    4  A    between atoms: C_9  and  O_11 
REMARK    5  A    between atoms: C_16  and  C_17 
REMARK    6  A    between atoms: C_17  and  C_18 
REMARK    7  A    between atoms: C_18  and  C_19 
REMARK    8  A    between atoms: C_19  and  O_21 
REMARK    9  A    between atoms: C_28  and  C_29 
REMARK   10  A    between atoms: C_29  and  C_30 
REMARK   11  A    between atoms: C_30  and  C_31 
REMARK   12  A    between atoms: C_31  and  O_33 
REMARK   13  A    between atoms: C_42  and  C_43 
REMARK   14  A    between atoms: C_43  and  C_44 
REMARK   15  A    between atoms: C_44  and  C_45 
REMARK   16  A    between atoms: C_45  and  O_47 
ROOT
HETATM    1  C   UNK     0     -18.800  20.428  21.276  0.00  0.00     0.051 C 
HETATM    2  C   UNK     0     -20.082  19.658  21.034  0.00  0.00    -0.031 A 
HETATM    3  C   UNK     0     -21.326  20.124  20.637  0.00  0.00     0.021 A 
HETATM    4  N   UNK     0     -22.189  19.082  20.578  0.00  0.00    -0.361 N 
HETATM    5  C   UNK     0     -21.520  17.962  20.920  0.00  0.00     0.022 A 
HETATM    6  C   UNK     0     -20.200  18.286  21.215  0.00  0.00    -0.027 A 
HETATM    7  C   UNK     0     -21.986  16.539  20.924  0.00  0.00     0.115 C 
HETATM    8  C   UNK     0     -22.823  16.092  19.738  0.00  0.00     0.021 A 
HETATM    9  N   UNK     0     -22.715  16.462  18.452  0.00  0.00    -0.361 N 
HETATM   10  C   UNK     0     -23.725  15.887  17.765  0.00  0.00     0.022 A 
HETATM   11  C   UNK     0     -24.498  15.119  18.630  0.00  0.00    -0.027 A 
HETATM   12  C   UNK     0     -23.936  15.244  19.875  0.00  0.00    -0.031 A 
HETATM   13  C   UNK     0     -24.441  14.575  21.133  0.00  0.00     0.051 C 
HETATM   14  C   UNK     0     -24.031  16.080  16.283  0.00  0.00     0.115 C 
HETATM   15  C   UNK     0     -24.341  17.519  15.901  0.00  0.00     0.021 A 
HETATM   16  N   UNK     0     -23.554  18.599  16.060  0.00  0.00    -0.361 N 
HETATM   17  C   UNK     0     -24.217  19.687  15.663  0.00  0.00     0.022 A 
HETATM   18  C   UNK     0     -25.494  19.296  15.214  0.00  0.00    -0.027 A 
HETATM   19  C   UNK     0     -25.558  17.936  15.367  0.00  0.00    -0.031 A 
HETATM   20  C   UNK     0     -26.759  17.098  14.967  0.00  0.00     0.051 C 
HETATM   21  C   UNK     0     -23.809  21.143  15.705  0.00  0.00     0.115 C 
HETATM   22  C   UNK     0     -22.940  21.591  16.856  0.00  0.00     0.022 A 
HETATM   23  N   UNK     0     -23.022  21.237  18.145  0.00  0.00    -0.361 N 
HETATM   24  C   UNK     0     -21.962  21.758  18.795  0.00  0.00     0.021 A 
HETATM   25  C   UNK     0     -21.184  22.474  17.905  0.00  0.00    -0.031 A 
HETATM   26  C   UNK     0     -19.921  23.268  18.168  0.00  0.00     0.051 C 
HETATM   27  C   UNK     0     -21.790  22.382  16.658  0.00  0.00    -0.027 A 
HETATM   28  C   UNK     0     -21.572  21.555  20.249  0.00  0.00     0.115 C 
HETATM   29  H   UNK     0     -23.274  19.152  20.333  0.00  0.00     0.165 HD
HETATM   30  H   UNK     0     -21.898  17.088  18.017  0.00  0.00     0.165 HD
HETATM   31  H   UNK     0     -22.490  18.589  16.416  0.00  0.00     0.165 HD
HETATM   32  H   UNK     0     -23.853  20.651  18.617  0.00  0.00     0.165 HD
ENDROOT
BRANCH   6  33
HETATM   33  C   UNK     0     -19.058  17.404  21.651  0.00  0.00     0.051 C 
BRANCH  33  34
HETATM   34  C   UNK     0     -19.090  17.188  23.146  0.00  0.00     0.114 C 
BRANCH  34  35
HETATM   35  C   UNK     0     -18.060  18.082  23.748  0.00  0.00     0.139 C 
HETATM   36  O   UNK     0     -18.219  18.541  24.916  0.00  0.00    -0.650 OA
BRANCH  35  37
HETATM   37  O   UNK     0     -16.899  18.446  23.077  0.00  0.00    -0.776 OA
HETATM   38  H   UNK     0     -16.030  17.953  23.206  0.00  0.00     0.167 HD
ENDBRANCH  35  37
ENDBRANCH  34  35
ENDBRANCH  33  34
ENDBRANCH   6  33
BRANCH  27  39
HETATM   39  C   UNK     0     -21.276  23.090  15.453  0.00  0.00     0.051 C 
BRANCH  39  40
HETATM   40  C   UNK     0     -22.092  24.158  14.876  0.00  0.00     0.114 C 
BRANCH  40  41
HETATM   41  C   UNK     0     -22.955  23.938  13.737  0.00  0.00     0.139 C 
HETATM   42  O   UNK     0     -23.938  24.646  13.478  0.00  0.00    -0.650 OA
BRANCH  41  43
HETATM   43  O   UNK     0     -22.674  22.856  12.855  0.00  0.00    -0.776 OA
HETATM   44  H   UNK     0     -23.460  22.563  12.288  0.00  0.00     0.167 HD
ENDBRANCH  41  43
ENDBRANCH  40  41
ENDBRANCH  39  40
ENDBRANCH  27  39
BRANCH  11  45
HETATM   45  C   UNK     0     -25.718  14.292  18.321  0.00  0.00     0.051 C 
BRANCH  45  46
HETATM   46  C   UNK     0     -26.967  15.083  18.180  0.00  0.00     0.114 C 
BRANCH  46  47
HETATM   47  C   UNK     0     -28.105  14.120  18.203  0.00  0.00     0.139 C 
HETATM   48  O   UNK     0     -27.975  13.066  18.841  0.00  0.00    -0.650 OA
BRANCH  47  49
HETATM   49  O   UNK     0     -29.270  14.393  17.531  0.00  0.00    -0.776 OA
HETATM   50  H   UNK     0     -29.986  13.676  17.370  0.00  0.00     0.167 HD
ENDBRANCH  47  49
ENDBRANCH  46  47
ENDBRANCH  45  46
ENDBRANCH  11  45
BRANCH  18  51
HETATM   51  C   UNK     0     -26.585  20.169  14.651  0.00  0.00     0.051 C 
BRANCH  51  52
HETATM   52  C   UNK     0     -26.183  20.482  13.217  0.00  0.00     0.114 C 
BRANCH  52  53
HETATM   53  C   UNK     0     -26.377  21.908  12.891  0.00  0.00     0.139 C 
HETATM   54  O   UNK     0     -27.385  22.507  13.297  0.00  0.00    -0.650 OA
BRANCH  53  55
HETATM   55  O   UNK     0     -25.439  22.566  12.133  0.00  0.00    -0.776 OA
HETATM   56  H   UNK     0     -25.525  22.803  11.173  0.00  0.00     0.167 HD
ENDBRANCH  53  55
ENDBRANCH  52  53
ENDBRANCH  51  52
ENDBRANCH  18  51
TORSDOF 16
ENDMDL
MODEL 6
REMARK VINA RESULT:      -8.0     17.810     22.708
REMARK  16 active torsions:
REMARK  status: ('A' for Active; 'I' for Inactive)
REMARK    1  A    between atoms: C_6  and  C_7 
REMARK    2  A    between atoms: C_7  and  C_8 
REMARK    3  A    between atoms: C_8  and  C_9 
REMARK    4  A    between atoms: C_9  and  O_11 
REMARK    5  A    between atoms: C_16  and  C_17 
REMARK    6  A    between atoms: C_17  and  C_18 
REMARK    7  A    between atoms: C_18  and  C_19 
REMARK    8  A    between atoms: C_19  and  O_21 
REMARK    9  A    between atoms: C_28  and  C_29 
REMARK   10  A    between atoms: C_29  and  C_30 
REMARK   11  A    between atoms: C_30  and  C_31 
REMARK   12  A    between atoms: C_31  and  O_33 
REMARK   13  A    between atoms: C_42  and  C_43 
REMARK   14  A    between atoms: C_43  and  C_44 
REMARK   15  A    between atoms: C_44  and  C_45 
REMARK   16  A    between atoms: C_45  and  O_47 
ROOT
HETATM    1  C   UNK     0     -18.913  20.715  23.774  0.00  0.00     0.051 C 
HETATM    2  C   UNK     0     -19.230  21.253  22.393  0.00  0.00    -0.031 A 
HETATM    3  C   UNK     0     -19.269  20.588  21.178  0.00  0.00     0.021 A 
HETATM    4  N   UNK     0     -19.567  21.476  20.199  0.00  0.00    -0.361 N 
HETATM    5  C   UNK     0     -19.728  22.689  20.766  0.00  0.00     0.022 A 
HETATM    6  C   UNK     0     -19.521  22.587  22.137  0.00  0.00    -0.027 A 
HETATM    7  C   UNK     0     -20.153  23.982  20.142  0.00  0.00     0.115 C 
HETATM    8  C   UNK     0     -21.295  23.914  19.144  0.00  0.00     0.021 A 
HETATM    9  N   UNK     0     -22.376  23.118  19.162  0.00  0.00    -0.361 N 
HETATM   10  C   UNK     0     -23.076  23.336  18.028  0.00  0.00     0.022 A 
HETATM   11  C   UNK     0     -22.433  24.305  17.263  0.00  0.00    -0.027 A 
HETATM   12  C   UNK     0     -21.311  24.674  17.960  0.00  0.00    -0.031 A 
HETATM   13  C   UNK     0     -20.305  25.710  17.512  0.00  0.00     0.051 C 
HETATM   14  C   UNK     0     -24.343  22.604  17.597  0.00  0.00     0.115 C 
HETATM   15  C   UNK     0     -24.158  21.105  17.417  0.00  0.00     0.021 A 
HETATM   16  N   UNK     0     -23.743  20.213  18.336  0.00  0.00    -0.361 N 
HETATM   17  C   UNK     0     -23.645  19.010  17.765  0.00  0.00     0.022 A 
HETATM   18  C   UNK     0     -24.024  19.122  16.413  0.00  0.00    -0.027 A 
HETATM   19  C   UNK     0     -24.344  20.439  16.208  0.00  0.00    -0.031 A 
HETATM   20  C   UNK     0     -24.843  20.991  14.884  0.00  0.00     0.051 C 
HETATM   21  C   UNK     0     -23.159  17.699  18.339  0.00  0.00     0.115 C 
HETATM   22  C   UNK     0     -22.053  17.755  19.367  0.00  0.00     0.022 A 
HETATM   23  N   UNK     0     -20.968  18.540  19.376  0.00  0.00    -0.361 N 
HETATM   24  C   UNK     0     -20.328  18.363  20.550  0.00  0.00     0.021 A 
HETATM   25  C   UNK     0     -21.012  17.434  21.310  0.00  0.00    -0.031 A 
HETATM   26  C   UNK     0     -20.665  16.879  22.676  0.00  0.00     0.051 C 
HETATM   27  C   UNK     0     -22.119  17.030  20.574  0.00  0.00    -0.027 A 
HETATM   28  C   UNK     0     -19.101  19.100  21.060  0.00  0.00     0.115 C 
HETATM   29  H   UNK     0     -19.623  21.246  19.110  0.00  0.00     0.165 HD
HETATM   30  H   UNK     0     -22.674  22.438  19.997  0.00  0.00     0.165 HD
HETATM   31  H   UNK     0     -23.561  20.426  19.421  0.00  0.00     0.165 HD
HETATM   32  H   UNK     0     -20.619  19.195  18.536  0.00  0.00     0.165 HD
ENDROOT
BRANCH   6  33
HETATM   33  C   UNK     0     -19.576  23.646  23.209  0.00  0.00     0.051 C 
BRANCH  33  34
HETATM   34  C   UNK     0     -18.291  24.439  23.244  0.00  0.00     0.114 C 
BRANCH  34  35
HETATM   35  C   UNK     0     -17.701  24.272  24.603  0.00  0.00     0.139 C 
HETATM   36  O   UNK     0     -17.984  25.090  25.526  0.00  0.00    -0.650 OA
BRANCH  35  37
HETATM   37  O   UNK     0     -16.833  23.234  24.920  0.00  0.00    -0.776 OA
HETATM   38  H   UNK     0     -16.550  23.045  25.869  0.00  0.00     0.167 HD
ENDBRANCH  35  37
ENDBRANCH  34  35
ENDBRANCH  33  34
ENDBRANCH   6  33
BRANCH  27  39
HETATM   39  C   UNK     0     -23.062  15.977  21.040  0.00  0.00     0.051 C 
BRANCH  39  40
HETATM   40  C   UNK     0     -22.732  14.579  20.767  0.00  0.00     0.114 C 
BRANCH  40  41
HETATM   41  C   UNK     0     -23.225  13.885  19.599  0.00  0.00     0.139 C 
HETATM   42  O   UNK     0     -22.731  14.009  18.470  0.00  0.00    -0.650 OA
BRANCH  41  43
HETATM   43  O   UNK     0     -24.338  13.007  19.735  0.00  0.00    -0.776 OA
HETATM   44  H   UNK     0     -24.091  12.030  19.837  0.00  0.00     0.167 HD
ENDBRANCH  41  43
ENDBRANCH  40  41
ENDBRANCH  39  40
ENDBRANCH  27  39
BRANCH  11  45
HETATM   45  C   UNK     0     -22.841  24.877  15.932  0.00  0.00     0.051 C 
BRANCH  45  46
HETATM   46  C   UNK     0     -22.002  24.421  14.794  0.00  0.00     0.114 C 
BRANCH  46  47
HETATM   47  C   UNK     0     -22.923  23.865  13.762  0.00  0.00     0.139 C 
HETATM   48  O   UNK     0     -24.061  24.344  13.663  0.00  0.00    -0.650 OA
BRANCH  47  49
HETATM   49  O   UNK     0     -22.520  22.843  12.939  0.00  0.00    -0.776 OA
HETATM   50  H   UNK     0     -21.700  22.264  13.151  0.00  0.00     0.167 HD
ENDBRANCH  47  49
ENDBRANCH  46  47
ENDBRANCH  45  46
ENDBRANCH  11  45
BRANCH  18  51
HETATM   51  C   UNK     0     -24.097  18.030  15.377  0.00  0.00     0.051 C 
BRANCH  51  52
HETATM   52  C   UNK     0     -25.500  17.449  15.469  0.00  0.00     0.114 C 
BRANCH  52  53
HETATM   53  C   UNK     0     -25.611  16.163  14.755  0.00  0.00     0.139 C 
HETATM   54  O   UNK     0     -24.878  15.212  15.070  0.00  0.00    -0.650 OA
BRANCH  53  55
HETATM   55  O   UNK     0     -26.525  16.026  13.738  0.00  0.00    -0.776 OA
HETATM   56  H   UNK     0     -26.603  16.612  12.941  0.00  0.00     0.167 HD
ENDBRANCH  53  55
ENDBRANCH  52  53
ENDBRANCH  51  52
ENDBRANCH  18  51
TORSDOF 16
ENDMDL
MODEL 7
REMARK VINA RESULT:      -7.9     21.639     26.578
REMARK  16 active torsions:
REMARK  status: ('A' for Active; 'I' for Inactive)
REMARK    1  A    between atoms: C_6  and  C_7 
REMARK    2  A    between atoms: C_7  and  C_8 
REMARK    3  A    between atoms: C_8  and  C_9 
REMARK    4  A    between atoms: C_9  and  O_11 
REMARK    5  A    between atoms: C_16  and  C_17 
REMARK    6  A    between atoms: C_17  and  C_18 
REMARK    7  A    between atoms: C_18  and  C_19 
REMARK    8  A    between atoms: C_19  and  O_21 
REMARK    9  A    between atoms: C_28  and  C_29 
REMARK   10  A    between atoms: C_29  and  C_30 
REMARK   11  A    between atoms: C_30  and  C_31 
REMARK   12  A    between atoms: C_31  and  O_33 
REMARK   13  A    between atoms: C_42  and  C_43 
REMARK   14  A    between atoms: C_43  and  C_44 
REMARK   15  A    between atoms: C_44  and  C_45 
REMARK   16  A    between atoms: C_45  and  O_47 
ROOT
HETATM    1  C   UNK     0     -20.017  23.552  20.872  0.00  0.00     0.051 C 
HETATM    2  C   UNK     0     -20.205  24.961  20.348  0.00  0.00    -0.031 A 
HETATM    3  C   UNK     0     -20.284  25.409  19.038  0.00  0.00     0.021 A 
HETATM    4  N   UNK     0     -20.422  26.756  19.040  0.00  0.00    -0.361 N 
HETATM    5  C   UNK     0     -20.442  27.175  20.322  0.00  0.00     0.022 A 
HETATM    6  C   UNK     0     -20.305  26.078  21.166  0.00  0.00    -0.027 A 
HETATM    7  C   UNK     0     -20.666  28.550  20.871  0.00  0.00     0.115 C 
HETATM    8  C   UNK     0     -21.767  29.371  20.222  0.00  0.00     0.021 A 
HETATM    9  N   UNK     0     -22.943  28.953  19.730  0.00  0.00    -0.361 N 
HETATM   10  C   UNK     0     -23.562  30.012  19.167  0.00  0.00     0.022 A 
HETATM   11  C   UNK     0     -22.767  31.145  19.307  0.00  0.00    -0.027 A 
HETATM   12  C   UNK     0     -21.634  30.749  19.971  0.00  0.00    -0.031 A 
HETATM   13  C   UNK     0     -20.482  31.652  20.351  0.00  0.00     0.051 C 
HETATM   14  C   UNK     0     -24.898  29.987  18.429  0.00  0.00     0.115 C 
HETATM   15  C   UNK     0     -24.907  29.091  17.201  0.00  0.00     0.021 A 
HETATM   16  N   UNK     0     -24.651  27.770  17.146  0.00  0.00    -0.361 N 
HETATM   17  C   UNK     0     -24.692  27.369  15.874  0.00  0.00     0.022 A 
HETATM   18  C   UNK     0     -24.998  28.479  15.062  0.00  0.00    -0.027 A 
HETATM   19  C   UNK     0     -25.132  29.551  15.906  0.00  0.00    -0.031 A 
HETATM   20  C   UNK     0     -25.500  30.948  15.442  0.00  0.00     0.051 C 
HETATM   21  C   UNK     0     -24.408  26.010  15.274  0.00  0.00     0.115 C 
HETATM   22  C   UNK     0     -23.346  25.164  15.936  0.00  0.00     0.022 A 
HETATM   23  N   UNK     0     -22.167  25.554  16.439  0.00  0.00    -0.361 N 
HETATM   24  C   UNK     0     -21.603  24.501  17.063  0.00  0.00     0.021 A 
HETATM   25  C   UNK     0     -22.434  23.403  16.952  0.00  0.00    -0.031 A 
HETATM   26  C   UNK     0     -22.219  21.989  17.452  0.00  0.00     0.051 C 
HETATM   27  C   UNK     0     -23.556  23.802  16.234  0.00  0.00    -0.027 A 
HETATM   28  C   UNK     0     -20.310  24.476  17.861  0.00  0.00     0.115 C 
HETATM   29  H   UNK     0     -20.465  27.405  18.135  0.00  0.00     0.165 HD
HETATM   30  H   UNK     0     -23.362  27.921  19.824  0.00  0.00     0.165 HD
HETATM   31  H   UNK     0     -24.486  27.097  18.028  0.00  0.00     0.165 HD
HETATM   32  H   UNK     0     -21.701  26.567  16.319  0.00  0.00     0.165 HD
ENDROOT
BRANCH   6  33
HETATM   33  C   UNK     0     -20.261  26.013  22.672  0.00  0.00     0.051 C 
BRANCH  33  34
HETATM   34  C   UNK     0     -18.885  26.365  23.183  0.00  0.00     0.114 C 
BRANCH  34  35
HETATM   35  C   UNK     0     -19.061  27.275  24.351  0.00  0.00     0.139 C 
HETATM   36  O   UNK     0     -19.878  28.240  24.289  0.00  0.00    -0.650 OA
BRANCH  35  37
HETATM   37  O   UNK     0     -18.359  27.114  25.539  0.00  0.00    -0.776 OA
HETATM   38  H   UNK     0     -17.438  26.709  25.565  0.00  0.00     0.167 HD
ENDBRANCH  35  37
ENDBRANCH  34  35
ENDBRANCH  33  34
ENDBRANCH   6  33
BRANCH  27  39
HETATM   39  C   UNK     0     -24.648  22.867  15.851  0.00  0.00     0.051 C 
BRANCH  39  40
HETATM   40  C   UNK     0     -24.473  22.049  14.651  0.00  0.00     0.114 C 
BRANCH  40  41
HETATM   41  C   UNK     0     -24.051  22.613  13.389  0.00  0.00     0.139 C 
HETATM   42  O   UNK     0     -22.890  22.547  12.964  0.00  0.00    -0.650 OA
BRANCH  41  43
HETATM   43  O   UNK     0     -25.010  23.285  12.578  0.00  0.00    -0.776 OA
HETATM   44  H   UNK     0     -24.719  23.429  11.618  0.00  0.00     0.167 HD
ENDBRANCH  41  43
ENDBRANCH  40  41
ENDBRANCH  39  40
ENDBRANCH  27  39
BRANCH  11  45
HETATM   45  C   UNK     0     -23.042  32.551  18.847  0.00  0.00     0.051 C 
BRANCH  45  46
HETATM   46  C   UNK     0     -22.708  32.799  17.421  0.00  0.00     0.114 C 
BRANCH  46  47
HETATM   47  C   UNK     0     -21.720  33.915  17.385  0.00  0.00     0.139 C 
HETATM   48  O   UNK     0     -21.414  34.468  18.451  0.00  0.00    -0.650 OA
BRANCH  47  49
HETATM   49  O   UNK     0     -21.163  34.323  16.200  0.00  0.00    -0.776 OA
HETATM   50  H   UNK     0     -20.402  35.012  16.163  0.00  0.00     0.167 HD
ENDBRANCH  47  49
ENDBRANCH  46  47
ENDBRANCH  45  46
ENDBRANCH  11  45
BRANCH  18  51
HETATM   51  C   UNK     0     -25.175  28.511  13.566  0.00  0.00     0.051 C 
BRANCH  51  52
HETATM   52  C   UNK     0     -26.583  28.004  13.292  0.00  0.00     0.114 C 
BRANCH  52  53
HETATM   53  C   UNK     0     -26.599  26.963  12.247  0.00  0.00     0.139 C 
HETATM   54  O   UNK     0     -26.556  27.285  11.049  0.00  0.00    -0.650 OA
BRANCH  53  55
HETATM   55  O   UNK     0     -26.664  25.639  12.607  0.00  0.00    -0.776 OA
HETATM   56  H   UNK     0     -27.439  25.187  13.033  0.00  0.00     0.167 HD
ENDBRANCH  53  55
ENDBRANCH  52  53
ENDBRANCH  51  52
ENDBRANCH  18  51
TORSDOF 16
ENDMDL
MODEL 8
REMARK VINA RESULT:      -7.9     17.747     22.261
REMARK  16 active torsions:
REMARK  status: ('A' for Active; 'I' for Inactive)
REMARK    1  A    between atoms: C_6  and  C_7 
REMARK    2  A    between atoms: C_7  and  C_8 
REMARK    3  A    between atoms: C_8  and  C_9 
REMARK    4  A    between atoms: C_9  and  O_11 
REMARK    5  A    between atoms: C_16  and  C_17 
REMARK    6  A    between atoms: C_17  and  C_18 
REMARK    7  A    between atoms: C_18  and  C_19 
REMARK    8  A    between atoms: C_19  and  O_21 
REMARK    9  A    between atoms: C_28  and  C_29 
REMARK   10  A    between atoms: C_29  and  C_30 
REMARK   11  A    between atoms: C_30  and  C_31 
REMARK   12  A    between atoms: C_31  and  O_33 
REMARK   13  A    between atoms: C_42  and  C_43 
REMARK   14  A    between atoms: C_43  and  C_44 
REMARK   15  A    between atoms: C_44  and  C_45 
REMARK   16  A    between atoms: C_45  and  O_47 
ROOT
HETATM    1  C   UNK     0     -26.343  24.118  -4.799  0.00  0.00     0.051 C 
HETATM    2  C   UNK     0     -25.842  24.221  -3.372  0.00  0.00    -0.031 A 
HETATM    3  C   UNK     0     -24.566  24.494  -2.905  0.00  0.00     0.021 A 
HETATM    4  N   UNK     0     -24.574  24.454  -1.551  0.00  0.00    -0.361 N 
HETATM    5  C   UNK     0     -25.829  24.171  -1.146  0.00  0.00     0.022 A 
HETATM    6  C   UNK     0     -26.648  24.016  -2.259  0.00  0.00    -0.027 A 
HETATM    7  C   UNK     0     -26.390  24.106   0.241  0.00  0.00     0.115 C 
HETATM    8  C   UNK     0     -25.954  25.196   1.204  0.00  0.00     0.021 A 
HETATM    9  N   UNK     0     -25.706  26.489   0.946  0.00  0.00    -0.361 N 
HETATM   10  C   UNK     0     -25.257  27.064   2.082  0.00  0.00     0.022 A 
HETATM   11  C   UNK     0     -25.223  26.118   3.101  0.00  0.00    -0.027 A 
HETATM   12  C   UNK     0     -25.661  24.938   2.555  0.00  0.00    -0.031 A 
HETATM   13  C   UNK     0     -25.797  23.628   3.298  0.00  0.00     0.051 C 
HETATM   14  C   UNK     0     -24.793  28.510   2.238  0.00  0.00     0.115 C 
HETATM   15  C   UNK     0     -23.604  28.872   1.362  0.00  0.00     0.021 A 
HETATM   16  N   UNK     0     -23.520  28.804   0.020  0.00  0.00    -0.361 N 
HETATM   17  C   UNK     0     -22.286  29.142  -0.360  0.00  0.00     0.022 A 
HETATM   18  C   UNK     0     -21.532  29.455   0.788  0.00  0.00    -0.027 A 
HETATM   19  C   UNK     0     -22.369  29.283   1.860  0.00  0.00    -0.031 A 
HETATM   20  C   UNK     0     -21.964  29.551   3.298  0.00  0.00     0.051 C 
HETATM   21  C   UNK     0     -21.664  29.157  -1.738  0.00  0.00     0.115 C 
HETATM   22  C   UNK     0     -22.121  28.105  -2.721  0.00  0.00     0.022 A 
HETATM   23  N   UNK     0     -22.379  26.811  -2.491  0.00  0.00    -0.361 N 
HETATM   24  C   UNK     0     -22.899  26.277  -3.615  0.00  0.00     0.021 A 
HETATM   25  C   UNK     0     -22.967  27.248  -4.595  0.00  0.00    -0.031 A 
HETATM   26  C   UNK     0     -23.438  27.124  -6.029  0.00  0.00     0.051 C 
HETATM   27  C   UNK     0     -22.475  28.427  -4.047  0.00  0.00    -0.027 A 
HETATM   28  C   UNK     0     -23.431  24.868  -3.815  0.00  0.00     0.115 C 
HETATM   29  H   UNK     0     -23.685  24.588  -0.893  0.00  0.00     0.165 HD
HETATM   30  H   UNK     0     -25.895  27.011  -0.024  0.00  0.00     0.165 HD
HETATM   31  H   UNK     0     -24.363  28.559  -0.677  0.00  0.00     0.165 HD
HETATM   32  H   UNK     0     -22.156  26.251  -1.546  0.00  0.00     0.165 HD
ENDROOT
BRANCH   6  33
HETATM   33  C   UNK     0     -28.117  23.689  -2.345  0.00  0.00     0.051 C 
BRANCH  33  34
HETATM   34  C   UNK     0     -28.337  22.196  -2.294  0.00  0.00     0.114 C 
BRANCH  34  35
HETATM   35  C   UNK     0     -28.756  21.759  -3.657  0.00  0.00     0.139 C 
HETATM   36  O   UNK     0     -28.214  20.751  -4.197  0.00  0.00    -0.650 OA
BRANCH  35  37
HETATM   37  O   UNK     0     -29.739  22.417  -4.386  0.00  0.00    -0.776 OA
HETATM   38  H   UNK     0     -29.901  23.407  -4.293  0.00  0.00     0.167 HD
ENDBRANCH  35  37
ENDBRANCH  34  35
ENDBRANCH  33  34
ENDBRANCH   6  33
BRANCH  27  39
HETATM   39  C   UNK     0     -22.325  29.684  -4.829  0.00  0.00     0.051 C 
BRANCH  39  40
HETATM   40  C   UNK     0     -23.262  30.777  -4.573  0.00  0.00     0.114 C 
BRANCH  40  41
HETATM   41  C   UNK     0     -22.849  32.162  -4.567  0.00  0.00     0.139 C 
HETATM   42  O   UNK     0     -22.435  32.756  -5.572  0.00  0.00    -0.650 OA
BRANCH  41  43
HETATM   43  O   UNK     0     -22.914  32.897  -3.350  0.00  0.00    -0.776 OA
HETATM   44  H   UNK     0     -23.335  32.395  -2.578  0.00  0.00     0.167 HD
ENDBRANCH  41  43
ENDBRANCH  40  41
ENDBRANCH  39  40
ENDBRANCH  27  39
BRANCH  11  45
HETATM   45  C   UNK     0     -24.803  26.293   4.536  0.00  0.00     0.051 C 
BRANCH  45  46
HETATM   46  C   UNK     0     -23.332  26.325   4.737  0.00  0.00     0.114 C 
BRANCH  46  47
HETATM   47  C   UNK     0     -23.003  25.287   5.756  0.00  0.00     0.139 C 
HETATM   48  O   UNK     0     -23.884  24.482   6.087  0.00  0.00    -0.650 OA
BRANCH  47  49
HETATM   49  O   UNK     0     -21.752  25.225   6.317  0.00  0.00    -0.776 OA
HETATM   50  H   UNK     0     -20.911  25.046   5.755  0.00  0.00     0.167 HD
ENDBRANCH  47  49
ENDBRANCH  46  47
ENDBRANCH  45  46
ENDBRANCH  11  45
BRANCH  18  51
HETATM   51  C   UNK     0     -20.098  29.913   0.859  0.00  0.00     0.051 C 
BRANCH  51  52
HETATM   52  C   UNK     0     -19.246  28.655   0.795  0.00  0.00     0.114 C 
BRANCH  52  53
HETATM   53  C   UNK     0     -18.342  28.544   1.956  0.00  0.00     0.139 C 
HETATM   54  O   UNK     0     -18.541  27.672   2.817  0.00  0.00    -0.650 OA
BRANCH  53  55
HETATM   55  O   UNK     0     -17.284  29.411   2.079  0.00  0.00    -0.776 OA
HETATM   56  H   UNK     0     -16.345  29.162   2.282  0.00  0.00     0.167 HD
ENDBRANCH  53  55
ENDBRANCH  52  53
ENDBRANCH  51  52
ENDBRANCH  18  51
TORSDOF 16
ENDMDL
MODEL 9
REMARK VINA RESULT:      -7.8     20.820     25.220
REMARK  16 active torsions:
REMARK  status: ('A' for Active; 'I' for Inactive)
REMARK    1  A    between atoms: C_6  and  C_7 
REMARK    2  A    between atoms: C_7  and  C_8 
REMARK    3  A    between atoms: C_8  and  C_9 
REMARK    4  A    between atoms: C_9  and  O_11 
REMARK    5  A    between atoms: C_16  and  C_17 
REMARK    6  A    between atoms: C_17  and  C_18 
REMARK    7  A    between atoms: C_18  and  C_19 
REMARK    8  A    between atoms: C_19  and  O_21 
REMARK    9  A    between atoms: C_28  and  C_29 
REMARK   10  A    between atoms: C_29  and  C_30 
REMARK   11  A    between atoms: C_30  and  C_31 
REMARK   12  A    between atoms: C_31  and  O_33 
REMARK   13  A    between atoms: C_42  and  C_43 
REMARK   14  A    between atoms: C_43  and  C_44 
REMARK   15  A    between atoms: C_44  and  C_45 
REMARK   16  A    between atoms: C_45  and  O_47 
ROOT
HETATM    1  C   UNK     0     -24.736  23.737  14.763  0.00  0.00     0.051 C 
HETATM    2  C   UNK     0     -23.489  23.502  15.591  0.00  0.00    -0.031 A 
HETATM    3  C   UNK     0     -22.424  24.354  15.838  0.00  0.00     0.021 A 
HETATM    4  N   UNK     0     -21.515  23.712  16.609  0.00  0.00    -0.361 N 
HETATM    5  C   UNK     0     -21.981  22.472  16.865  0.00  0.00     0.022 A 
HETATM    6  C   UNK     0     -23.213  22.307  16.241  0.00  0.00    -0.027 A 
HETATM    7  C   UNK     0     -21.407  21.401  17.740  0.00  0.00     0.115 C 
HETATM    8  C   UNK     0     -20.848  21.844  19.081  0.00  0.00     0.021 A 
HETATM    9  N   UNK     0     -21.296  22.812  19.895  0.00  0.00    -0.361 N 
HETATM   10  C   UNK     0     -20.438  22.918  20.932  0.00  0.00     0.022 A 
HETATM   11  C   UNK     0     -19.414  21.987  20.786  0.00  0.00    -0.027 A 
HETATM   12  C   UNK     0     -19.666  21.306  19.622  0.00  0.00    -0.031 A 
HETATM   13  C   UNK     0     -18.815  20.190  19.059  0.00  0.00     0.051 C 
HETATM   14  C   UNK     0     -20.518  23.933  22.068  0.00  0.00     0.115 C 
HETATM   15  C   UNK     0     -20.435  25.380  21.609  0.00  0.00     0.021 A 
HETATM   16  N   UNK     0     -21.250  26.016  20.747  0.00  0.00    -0.361 N 
HETATM   17  C   UNK     0     -20.800  27.257  20.552  0.00  0.00     0.022 A 
HETATM   18  C   UNK     0     -19.641  27.442  21.332  0.00  0.00    -0.027 A 
HETATM   19  C   UNK     0     -19.424  26.260  21.990  0.00  0.00    -0.031 A 
HETATM   20  C   UNK     0     -18.289  26.036  22.972  0.00  0.00     0.051 C 
HETATM   21  C   UNK     0     -21.309  28.343  19.631  0.00  0.00     0.115 C 
HETATM   22  C   UNK     0     -21.909  27.914  18.312  0.00  0.00     0.022 A 
HETATM   23  N   UNK     0     -21.486  26.951  17.482  0.00  0.00    -0.361 N 
HETATM   24  C   UNK     0     -22.398  26.810  16.499  0.00  0.00     0.021 A 
HETATM   25  C   UNK     0     -23.427  27.710  16.694  0.00  0.00    -0.031 A 
HETATM   26  C   UNK     0     -24.652  27.958  15.839  0.00  0.00     0.051 C 
HETATM   27  C   UNK     0     -23.136  28.429  17.848  0.00  0.00    -0.027 A 
HETATM   28  C   UNK     0     -22.404  25.784  15.378  0.00  0.00     0.115 C 
HETATM   29  H   UNK     0     -20.532  24.125  16.933  0.00  0.00     0.165 HD
HETATM   30  H   UNK     0     -22.245  23.388  19.768  0.00  0.00     0.165 HD
HETATM   31  H   UNK     0     -22.191  25.597  20.303  0.00  0.00     0.165 HD
HETATM   32  H   UNK     0     -20.518  26.391  17.559  0.00  0.00     0.165 HD
ENDROOT
BRANCH   6  33
HETATM   33  C   UNK     0     -24.134  21.113  16.214  0.00  0.00     0.051 C 
BRANCH  33  34
HETATM   34  C   UNK     0     -23.735  20.154  15.119  0.00  0.00     0.114 C 
BRANCH  34  35
HETATM   35  C   UNK     0     -24.069  18.778  15.587  0.00  0.00     0.139 C 
HETATM   36  O   UNK     0     -25.219  18.295  15.376  0.00  0.00    -0.650 OA
BRANCH  35  37
HETATM   37  O   UNK     0     -23.157  17.973  16.259  0.00  0.00    -0.776 OA
HETATM   38  H   UNK     0     -22.390  18.360  16.786  0.00  0.00     0.167 HD
ENDBRANCH  35  37
ENDBRANCH  34  35
ENDBRANCH  33  34
ENDBRANCH   6  33
BRANCH  27  39
HETATM   39  C   UNK     0     -23.985  29.546  18.343  0.00  0.00     0.051 C 
BRANCH  39  40
HETATM   40  C   UNK     0     -23.674  30.904  17.899  0.00  0.00     0.114 C 
BRANCH  40  41
HETATM   41  C   UNK     0     -24.359  31.528  16.789  0.00  0.00     0.139 C 
HETATM   42  O   UNK     0     -23.916  31.542  15.633  0.00  0.00    -0.650 OA
BRANCH  41  43
HETATM   43  O   UNK     0     -25.611  32.165  17.020  0.00  0.00    -0.776 OA
HETATM   44  H   UNK     0     -25.627  32.779  17.826  0.00  0.00     0.167 HD
ENDBRANCH  41  43
ENDBRANCH  40  41
ENDBRANCH  39  40
ENDBRANCH  27  39
BRANCH  11  45
HETATM   45  C   UNK     0     -18.239  21.728  21.691  0.00  0.00     0.051 C 
BRANCH  45  46
HETATM   46  C   UNK     0     -18.576  20.956  22.914  0.00  0.00     0.114 C 
BRANCH  46  47
HETATM   47  C   UNK     0     -18.373  19.513  22.595  0.00  0.00     0.139 C 
HETATM   48  O   UNK     0     -19.364  18.821  22.327  0.00  0.00    -0.650 OA
BRANCH  47  49
HETATM   49  O   UNK     0     -17.116  18.963  22.598  0.00  0.00    -0.776 OA
HETATM   50  H   UNK     0     -16.363  19.327  23.195  0.00  0.00     0.167 HD
ENDBRANCH  47  49
ENDBRANCH  46  47
ENDBRANCH  45  46
ENDBRANCH  11  45
BRANCH  18  51
HETATM   51  C   UNK     0     -18.799  28.685  21.459  0.00  0.00     0.051 C 
BRANCH  51  52
HETATM   52  C   UNK     0     -19.388  29.482  22.613  0.00  0.00     0.114 C 
BRANCH  52  53
HETATM   53  C   UNK     0     -19.669  30.879  22.229  0.00  0.00     0.139 C 
HETATM   54  O   UNK     0     -20.820  31.217  21.911  0.00  0.00    -0.650 OA
BRANCH  53  55
HETATM   55  O   UNK     0     -18.650  31.800  22.223  0.00  0.00    -0.776 OA
HETATM   56  H   UNK     0     -17.856  31.798  22.820  0.00  0.00     0.167 HD
ENDBRANCH  53  55
ENDBRANCH  52  53
ENDBRANCH  51  52
ENDBRANCH  18  51
TORSDOF 16
ENDMDL
MODEL 10
REMARK VINA RESULT:      -7.8     22.131     27.142
REMARK  16 active torsions:
REMARK  status: ('A' for Active; 'I' for Inactive)
REMARK    1  A    between atoms: C_6  and  C_7 
REMARK    2  A    between atoms: C_7  and  C_8 
REMARK    3  A    between atoms: C_8  and  C_9 
REMARK    4  A    between atoms: C_9  and  O_11 
REMARK    5  A    between atoms: C_16  and  C_17 
REMARK    6  A    between atoms: C_17  and  C_18 
REMARK    7  A    between atoms: C_18  and  C_19 
REMARK    8  A    between atoms: C_19  and  O_21 
REMARK    9  A    between atoms: C_28  and  C_29 
REMARK   10  A    between atoms: C_29  and  C_30 
REMARK   11  A    between atoms: C_30  and  C_31 
REMARK   12  A    between atoms: C_31  and  O_33 
REMARK   13  A    between atoms: C_42  and  C_43 
REMARK   14  A    between atoms: C_43  and  C_44 
REMARK   15  A    between atoms: C_44  and  C_45 
REMARK   16  A    between atoms: C_45  and  O_47 
ROOT
HETATM    1  C   UNK     0     -21.700  22.403  16.066  0.00  0.00     0.051 C 
HETATM    2  C   UNK     0     -21.130  23.668  16.673  0.00  0.00    -0.031 A 
HETATM    3  C   UNK     0     -21.080  24.950  16.148  0.00  0.00     0.021 A 
HETATM    4  N   UNK     0     -20.449  25.763  17.029  0.00  0.00    -0.361 N 
HETATM    5  C   UNK     0     -20.105  25.029  18.107  0.00  0.00     0.022 A 
HETATM    6  C   UNK     0     -20.513  23.713  17.916  0.00  0.00    -0.027 A 
HETATM    7  C   UNK     0     -19.475  25.464  19.394  0.00  0.00     0.115 C 
HETATM    8  C   UNK     0     -19.997  26.752  20.006  0.00  0.00     0.021 A 
HETATM    9  N   UNK     0     -21.251  27.230  20.007  0.00  0.00    -0.361 N 
HETATM   10  C   UNK     0     -21.235  28.449  20.585  0.00  0.00     0.022 A 
HETATM   11  C   UNK     0     -19.937  28.762  20.976  0.00  0.00    -0.027 A 
HETATM   12  C   UNK     0     -19.152  27.697  20.615  0.00  0.00    -0.031 A 
HETATM   13  C   UNK     0     -17.661  27.591  20.847  0.00  0.00     0.051 C 
HETATM   14  C   UNK     0     -22.428  29.387  20.744  0.00  0.00     0.115 C 
HETATM   15  C   UNK     0     -23.055  29.815  19.426  0.00  0.00     0.021 A 
HETATM   16  N   UNK     0     -23.579  29.024  18.471  0.00  0.00    -0.361 N 
HETATM   17  C   UNK     0     -23.963  29.778  17.439  0.00  0.00     0.022 A 
HETATM   18  C   UNK     0     -23.685  31.126  17.740  0.00  0.00    -0.027 A 
HETATM   19  C   UNK     0     -23.118  31.136  18.988  0.00  0.00    -0.031 A 
HETATM   20  C   UNK     0     -22.696  32.400  19.714  0.00  0.00     0.051 C 
HETATM   21  C   UNK     0     -24.538  29.374  16.101  0.00  0.00     0.115 C 
HETATM   22  C   UNK     0     -24.061  28.072  15.500  0.00  0.00     0.022 A 
HETATM   23  N   UNK     0     -22.819  27.570  15.488  0.00  0.00    -0.361 N 
HETATM   24  C   UNK     0     -22.872  26.323  14.978  0.00  0.00     0.021 A 
HETATM   25  C   UNK     0     -24.178  26.019  14.644  0.00  0.00    -0.031 A 
HETATM   26  C   UNK     0     -24.730  24.761  14.006  0.00  0.00     0.051 C 
HETATM   27  C   UNK     0     -24.957  27.123  14.969  0.00  0.00    -0.027 A 
HETATM   28  C   UNK     0     -21.736  25.323  14.849  0.00  0.00     0.115 C 
HETATM   29  H   UNK     0     -20.217  26.841  16.866  0.00  0.00     0.165 HD
HETATM   30  H   UNK     0     -22.159  26.687  19.645  0.00  0.00     0.165 HD
HETATM   31  H   UNK     0     -23.724  27.915  18.545  0.00  0.00     0.165 HD
HETATM   32  H   UNK     0     -21.887  28.108  15.800  0.00  0.00     0.165 HD
ENDROOT
BRANCH   6  33
HETATM   33  C   UNK     0     -20.361  22.510  18.813  0.00  0.00     0.051 C 
BRANCH  33  34
HETATM   34  C   UNK     0     -19.088  21.762  18.493  0.00  0.00     0.114 C 
BRANCH  34  35
HETATM   35  C   UNK     0     -18.860  20.780  19.592  0.00  0.00     0.139 C 
HETATM   36  O   UNK     0     -19.533  19.710  19.640  0.00  0.00    -0.650 OA
BRANCH  35  37
HETATM   37  O   UNK     0     -17.918  20.982  20.594  0.00  0.00    -0.776 OA
HETATM   38  H   UNK     0     -18.049  21.668  21.320  0.00  0.00     0.167 HD
ENDBRANCH  35  37
ENDBRANCH  34  35
ENDBRANCH  33  34
ENDBRANCH   6  33
BRANCH  27  39
HETATM   39  C   UNK     0     -26.417  27.197  14.686  0.00  0.00     0.051 C 
BRANCH  39  40
HETATM   40  C   UNK     0     -26.848  27.770  13.412  0.00  0.00     0.114 C 
BRANCH  40  41
HETATM   41  C   UNK     0     -27.088  26.956  12.242  0.00  0.00     0.139 C 
HETATM   42  O   UNK     0     -27.782  25.930  12.253  0.00  0.00    -0.650 OA
BRANCH  41  43
HETATM   43  O   UNK     0     -26.503  27.338  11.001  0.00  0.00    -0.776 OA
HETATM   44  H   UNK     0     -25.491  27.305  10.988  0.00  0.00     0.167 HD
ENDBRANCH  41  43
ENDBRANCH  40  41
ENDBRANCH  39  40
ENDBRANCH  27  39
BRANCH  11  45
HETATM   45  C   UNK     0     -19.433  30.002  21.665  0.00  0.00     0.051 C 
BRANCH  45  46
HETATM   46  C   UNK     0     -19.462  29.926  23.148  0.00  0.00     0.114 C 
BRANCH  46  47
HETATM   47  C   UNK     0     -19.997  31.225  23.646  0.00  0.00     0.139 C 
HETATM   48  O   UNK     0     -19.901  31.481  24.854  0.00  0.00    -0.650 OA
BRANCH  47  49
HETATM   49  O   UNK     0     -20.585  32.119  22.787  0.00  0.00    -0.776 OA
HETATM   50  H   UNK     0     -21.386  31.862  22.198  0.00  0.00     0.167 HD
ENDBRANCH  47  49
ENDBRANCH  46  47
ENDBRANCH  45  46
ENDBRANCH  11  45
BRANCH  18  51
HETATM   51  C   UNK     0     -23.964  32.341  16.893  0.00  0.00     0.051 C 
BRANCH  51  52
HETATM   52  C   UNK     0     -23.547  33.545  17.725  0.00  0.00     0.114 C 
BRANCH  52  53
HETATM   53  C   UNK     0     -22.807  34.538  16.923  0.00  0.00     0.139 C 
HETATM   54  O   UNK     0     -22.372  35.570  17.458  0.00  0.00    -0.650 OA
BRANCH  53  55
HETATM   55  O   UNK     0     -22.607  34.315  15.582  0.00  0.00    -0.776 OA
HETATM   56  H   UNK     0     -22.034  33.607  15.187  0.00  0.00     0.167 HD
ENDBRANCH  53  55
ENDBRANCH  52  53
ENDBRANCH  51  52
ENDBRANCH  18  51
TORSDOF 16
ENDMDL
MODEL 11
REMARK VINA RESULT:      -7.8     16.596     20.788
REMARK  16 active torsions:
REMARK  status: ('A' for Active; 'I' for Inactive)
REMARK    1  A    between atoms: C_6  and  C_7 
REMARK    2  A    between atoms: C_7  and  C_8 
REMARK    3  A    between atoms: C_8  and  C_9 
REMARK    4  A    between atoms: C_9  and  O_11 
REMARK    5  A    between atoms: C_16  and  C_17 
REMARK    6  A    between atoms: C_17  and  C_18 
REMARK    7  A    between atoms: C_18  and  C_19 
REMARK    8  A    between atoms: C_19  and  O_21 
REMARK    9  A    between atoms: C_28  and  C_29 
REMARK   10  A    between atoms: C_29  and  C_30 
REMARK   11  A    between atoms: C_30  and  C_31 
REMARK   12  A    between atoms: C_31  and  O_33 
REMARK   13  A    between atoms: C_42  and  C_43 
REMARK   14  A    between atoms: C_43  and  C_44 
REMARK   15  A    between atoms: C_44  and  C_45 
REMARK   16  A    between atoms: C_45  and  O_47 
ROOT
HETATM    1  C   UNK     0     -24.752  23.598  14.537  0.00  0.00     0.051 C 
HETATM    2  C   UNK     0     -24.277  23.269  15.938  0.00  0.00    -0.031 A 
HETATM    3  C   UNK     0     -24.817  22.395  16.867  0.00  0.00     0.021 A 
HETATM    4  N   UNK     0     -24.079  22.444  18.001  0.00  0.00    -0.361 N 
HETATM    5  C   UNK     0     -23.075  23.325  17.812  0.00  0.00     0.022 A 
HETATM    6  C   UNK     0     -23.171  23.862  16.532  0.00  0.00    -0.027 A 
HETATM    7  C   UNK     0     -21.933  23.676  18.714  0.00  0.00     0.115 C 
HETATM    8  C   UNK     0     -21.250  22.524  19.429  0.00  0.00     0.021 A 
HETATM    9  N   UNK     0     -21.022  21.279  18.981  0.00  0.00    -0.361 N 
HETATM   10  C   UNK     0     -20.472  20.566  19.986  0.00  0.00     0.022 A 
HETATM   11  C   UNK     0     -20.333  21.376  21.110  0.00  0.00    -0.027 A 
HETATM   12  C   UNK     0     -20.821  22.611  20.765  0.00  0.00    -0.031 A 
HETATM   13  C   UNK     0     -20.868  23.817  21.676  0.00  0.00     0.051 C 
HETATM   14  C   UNK     0     -20.106  19.085  19.945  0.00  0.00     0.115 C 
HETATM   15  C   UNK     0     -21.289  18.165  19.691  0.00  0.00     0.021 A 
HETATM   16  N   UNK     0     -22.120  18.170  18.632  0.00  0.00    -0.361 N 
HETATM   17  C   UNK     0     -23.072  17.253  18.818  0.00  0.00     0.022 A 
HETATM   18  C   UNK     0     -22.844  16.613  20.052  0.00  0.00    -0.027 A 
HETATM   19  C   UNK     0     -21.724  17.193  20.588  0.00  0.00    -0.031 A 
HETATM   20  C   UNK     0     -21.105  16.770  21.908  0.00  0.00     0.051 C 
HETATM   21  C   UNK     0     -24.275  16.915  17.966  0.00  0.00     0.115 C 
HETATM   22  C   UNK     0     -24.938  18.045  17.215  0.00  0.00     0.022 A 
HETATM   23  N   UNK     0     -25.174  19.295  17.634  0.00  0.00    -0.361 N 
HETATM   24  C   UNK     0     -25.650  20.008  16.594  0.00  0.00     0.021 A 
HETATM   25  C   UNK     0     -25.732  19.195  15.479  0.00  0.00    -0.031 A 
HETATM   26  C   UNK     0     -26.241  19.527  14.092  0.00  0.00     0.051 C 
HETATM   27  C   UNK     0     -25.282  17.933  15.852  0.00  0.00    -0.027 A 
HETATM   28  C   UNK     0     -25.976  21.491  16.555  0.00  0.00     0.115 C 
HETATM   29  H   UNK     0     -24.295  21.887  18.942  0.00  0.00     0.165 HD
HETATM   30  H   UNK     0     -21.202  20.915  17.940  0.00  0.00     0.165 HD
HETATM   31  H   UNK     0     -22.006  18.801  17.712  0.00  0.00     0.165 HD
HETATM   32  H   UNK     0     -25.048  19.674  18.681  0.00  0.00     0.165 HD
ENDROOT
BRANCH   6  33
HETATM   33  C   UNK     0     -22.303  24.884  15.841  0.00  0.00     0.051 C 
BRANCH  33  34
HETATM   34  C   UNK     0     -21.269  24.208  14.972  0.00  0.00     0.114 C 
BRANCH  34  35
HETATM   35  C   UNK     0     -20.182  23.720  15.868  0.00  0.00     0.139 C 
HETATM   36  O   UNK     0     -19.389  24.542  16.413  0.00  0.00    -0.650 OA
BRANCH  35  37
HETATM   37  O   UNK     0     -19.990  22.373  16.148  0.00  0.00    -0.776 OA
HETATM   38  H   UNK     0     -20.031  21.667  15.431  0.00  0.00     0.167 HD
ENDBRANCH  35  37
ENDBRANCH  34  35
ENDBRANCH  33  34
ENDBRANCH   6  33
BRANCH  27  39
HETATM   39  C   UNK     0     -25.289  16.765  14.931  0.00  0.00     0.051 C 
BRANCH  39  40
HETATM   40  C   UNK     0     -26.377  15.795  15.049  0.00  0.00     0.114 C 
BRANCH  40  41
HETATM   41  C   UNK     0     -27.768  16.191  15.037  0.00  0.00     0.139 C 
HETATM   42  O   UNK     0     -28.535  16.021  15.994  0.00  0.00    -0.650 OA
BRANCH  41  43
HETATM   43  O   UNK     0     -28.300  16.812  13.872  0.00  0.00    -0.776 OA
HETATM   44  H   UNK     0     -29.311  16.808  13.820  0.00  0.00     0.167 HD
ENDBRANCH  41  43
ENDBRANCH  40  41
ENDBRANCH  39  40
ENDBRANCH  27  39
BRANCH  11  45
HETATM   45  C   UNK     0     -19.765  21.025  22.459  0.00  0.00     0.051 C 
BRANCH  45  46
HETATM   46  C   UNK     0     -18.301  20.777  22.454  0.00  0.00     0.114 C 
BRANCH  46  47
HETATM   47  C   UNK     0     -18.085  19.403  22.992  0.00  0.00     0.139 C 
HETATM   48  O   UNK     0     -18.898  18.952  23.810  0.00  0.00    -0.650 OA
BRANCH  47  49
HETATM   49  O   UNK     0     -17.008  18.653  22.591  0.00  0.00    -0.776 OA
HETATM   50  H   UNK     0     -16.888  18.348  21.618  0.00  0.00     0.167 HD
ENDBRANCH  47  49
ENDBRANCH  46  47
ENDBRANCH  45  46
ENDBRANCH  11  45
BRANCH  18  51
HETATM   51  C   UNK     0     -23.639  15.496  20.677  0.00  0.00     0.051 C 
BRANCH  51  52
HETATM   52  C   UNK     0     -23.089  14.203  20.092  0.00  0.00     0.114 C 
BRANCH  52  53
HETATM   53  C   UNK     0     -24.132  13.431  19.388  0.00  0.00     0.139 C 
HETATM   54  O   UNK     0     -24.192  13.455  18.149  0.00  0.00    -0.650 OA
BRANCH  53  55
HETATM   55  O   UNK     0     -25.035  12.691  20.112  0.00  0.00    -0.776 OA
HETATM   56  H   UNK     0     -24.820  11.918  20.697  0.00  0.00     0.167 HD
ENDBRANCH  53  55
ENDBRANCH  52  53
ENDBRANCH  51  52
ENDBRANCH  18  51
TORSDOF 16
ENDMDL
MODEL 12
REMARK VINA RESULT:      -7.8     21.631     26.340
REMARK  16 active torsions:
REMARK  status: ('A' for Active; 'I' for Inactive)
REMARK    1  A    between atoms: C_6  and  C_7 
REMARK    2  A    between atoms: C_7  and  C_8 
REMARK    3  A    between atoms: C_8  and  C_9 
REMARK    4  A    between atoms: C_9  and  O_11 
REMARK    5  A    between atoms: C_16  and  C_17 
REMARK    6  A    between atoms: C_17  and  C_18 
REMARK    7  A    between atoms: C_18  and  C_19 
REMARK    8  A    between atoms: C_19  and  O_21 
REMARK    9  A    between atoms: C_28  and  C_29 
REMARK   10  A    between atoms: C_29  and  C_30 
REMARK   11  A    between atoms: C_30  and  C_31 
REMARK   12  A    between atoms: C_31  and  O_33 
REMARK   13  A    between atoms: C_42  and  C_43 
REMARK   14  A    between atoms: C_43  and  C_44 
REMARK   15  A    between atoms: C_44  and  C_45 
REMARK   16  A    between atoms: C_45  and  O_47 
ROOT
HETATM    1  C   UNK     0     -19.500  24.974  22.426  0.00  0.00     0.051 C 
HETATM    2  C   UNK     0     -20.666  24.801  21.474  0.00  0.00    -0.031 A 
HETATM    3  C   UNK     0     -21.831  25.545  21.366  0.00  0.00     0.021 A 
HETATM    4  N   UNK     0     -22.607  25.009  20.394  0.00  0.00    -0.361 N 
HETATM    5  C   UNK     0     -21.959  23.946  19.875  0.00  0.00     0.022 A 
HETATM    6  C   UNK     0     -20.742  23.786  20.530  0.00  0.00    -0.027 A 
HETATM    7  C   UNK     0     -22.338  23.070  18.722  0.00  0.00     0.115 C 
HETATM    8  C   UNK     0     -22.900  23.764  17.494  0.00  0.00     0.021 A 
HETATM    9  N   UNK     0     -22.562  24.957  16.980  0.00  0.00    -0.361 N 
HETATM   10  C   UNK     0     -23.384  25.214  15.941  0.00  0.00     0.022 A 
HETATM   11  C   UNK     0     -24.270  24.153  15.775  0.00  0.00    -0.027 A 
HETATM   12  C   UNK     0     -23.970  23.236  16.750  0.00  0.00    -0.031 A 
HETATM   13  C   UNK     0     -24.675  21.914  16.953  0.00  0.00     0.051 C 
HETATM   14  C   UNK     0     -23.403  26.487  15.100  0.00  0.00     0.115 C 
HETATM   15  C   UNK     0     -23.710  27.746  15.895  0.00  0.00     0.021 A 
HETATM   16  N   UNK     0     -23.030  28.240  16.946  0.00  0.00    -0.361 N 
HETATM   17  C   UNK     0     -23.661  29.322  17.408  0.00  0.00     0.022 A 
HETATM   18  C   UNK     0     -24.801  29.550  16.613  0.00  0.00    -0.027 A 
HETATM   19  C   UNK     0     -24.820  28.557  15.668  0.00  0.00    -0.031 A 
HETATM   20  C   UNK     0     -25.872  28.448  14.579  0.00  0.00     0.051 C 
HETATM   21  C   UNK     0     -23.349  30.192  18.604  0.00  0.00     0.115 C 
HETATM   22  C   UNK     0     -22.749  29.521  19.817  0.00  0.00     0.022 A 
HETATM   23  N   UNK     0     -23.062  28.333  20.349  0.00  0.00    -0.361 N 
HETATM   24  C   UNK     0     -22.181  28.063  21.333  0.00  0.00     0.021 A 
HETATM   25  C   UNK     0     -21.284  29.108  21.444  0.00  0.00    -0.031 A 
HETATM   26  C   UNK     0     -20.142  29.284  22.424  0.00  0.00     0.051 C 
HETATM   27  C   UNK     0     -21.627  30.054  20.485  0.00  0.00    -0.027 A 
HETATM   28  C   UNK     0     -22.074  26.795  22.163  0.00  0.00     0.115 C 
HETATM   29  H   UNK     0     -23.625  25.362  20.109  0.00  0.00     0.165 HD
HETATM   30  H   UNK     0     -21.711  25.598  17.318  0.00  0.00     0.165 HD
HETATM   31  H   UNK     0     -22.058  27.845  17.343  0.00  0.00     0.165 HD
HETATM   32  H   UNK     0     -23.937  27.692  20.063  0.00  0.00     0.165 HD
ENDROOT
BRANCH   6  33
HETATM   33  C   UNK     0     -19.662  22.753  20.330  0.00  0.00     0.051 C 
BRANCH  33  34
HETATM   34  C   UNK     0     -19.928  21.530  21.175  0.00  0.00     0.114 C 
BRANCH  34  35
HETATM   35  C   UNK     0     -18.623  21.090  21.747  0.00  0.00     0.139 C 
HETATM   36  O   UNK     0     -18.099  21.730  22.705  0.00  0.00    -0.650 OA
BRANCH  35  37
HETATM   37  O   UNK     0     -17.933  19.981  21.273  0.00  0.00    -0.776 OA
HETATM   38  H   UNK     0     -18.088  19.057  21.642  0.00  0.00     0.167 HD
ENDBRANCH  35  37
ENDBRANCH  34  35
ENDBRANCH  33  34
ENDBRANCH   6  33
BRANCH  27  39
HETATM   39  C   UNK     0     -20.926  31.359  20.347  0.00  0.00     0.051 C 
BRANCH  39  40
HETATM   40  C   UNK     0     -21.732  32.580  20.318  0.00  0.00     0.114 C 
BRANCH  40  41
HETATM   41  C   UNK     0     -21.667  33.520  19.222  0.00  0.00     0.139 C 
HETATM   42  O   UNK     0     -20.697  33.613  18.458  0.00  0.00    -0.650 OA
BRANCH  41  43
HETATM   43  O   UNK     0     -22.768  34.394  18.994  0.00  0.00    -0.776 OA
HETATM   44  H   UNK     0     -23.323  34.165  18.179  0.00  0.00     0.167 HD
ENDBRANCH  41  43
ENDBRANCH  40  41
ENDBRANCH  39  40
ENDBRANCH  27  39
BRANCH  11  45
HETATM   45  C   UNK     0     -25.357  23.986  14.748  0.00  0.00     0.051 C 
BRANCH  45  46
HETATM   46  C   UNK     0     -24.863  23.894  13.351  0.00  0.00     0.114 C 
BRANCH  46  47
HETATM   47  C   UNK     0     -24.070  22.636  13.245  0.00  0.00     0.139 C 
HETATM   48  O   UNK     0     -24.651  21.554  13.407  0.00  0.00    -0.650 OA
BRANCH  47  49
HETATM   49  O   UNK     0     -22.725  22.674  12.975  0.00  0.00    -0.776 OA
HETATM   50  H   UNK     0     -22.359  22.622  12.017  0.00  0.00     0.167 HD
ENDBRANCH  47  49
ENDBRANCH  46  47
ENDBRANCH  45  46
ENDBRANCH  11  45
BRANCH  18  51
HETATM   51  C   UNK     0     -25.807  30.666  16.733  0.00  0.00     0.051 C 
BRANCH  51  52
HETATM   52  C   UNK     0     -25.351  31.755  15.774  0.00  0.00     0.114 C 
BRANCH  52  53
HETATM   53  C   UNK     0     -24.540  32.783  16.455  0.00  0.00     0.139 C 
HETATM   54  O   UNK     0     -23.322  32.864  16.229  0.00  0.00    -0.650 OA
BRANCH  53  55
HETATM   55  O   UNK     0     -25.139  33.644  17.342  0.00  0.00    -0.776 OA
HETATM   56  H   UNK     0     -24.696  34.396  17.816  0.00  0.00     0.167 HD
ENDBRANCH  53  55
ENDBRANCH  52  53
ENDBRANCH  51  52
ENDBRANCH  18  51
TORSDOF 16
ENDMDL
MODEL 13
REMARK VINA RESULT:      -7.8     16.078     20.708
REMARK  16 active torsions:
REMARK  status: ('A' for Active; 'I' for Inactive)
REMARK    1  A    between atoms: C_6  and  C_7 
REMARK    2  A    between atoms: C_7  and  C_8 
REMARK    3  A    between atoms: C_8  and  C_9 
REMARK    4  A    between atoms: C_9  and  O_11 
REMARK    5  A    between atoms: C_16  and  C_17 
REMARK    6  A    between atoms: C_17  and  C_18 
REMARK    7  A    between atoms: C_18  and  C_19 
REMARK    8  A    between atoms: C_19  and  O_21 
REMARK    9  A    between atoms: C_28  and  C_29 
REMARK   10  A    between atoms: C_29  and  C_30 
REMARK   11  A    between atoms: C_30  and  C_31 
REMARK   12  A    between atoms: C_31  and  O_33 
REMARK   13  A    between atoms: C_42  and  C_43 
REMARK   14  A    between atoms: C_43  and  C_44 
REMARK   15  A    between atoms: C_44  and  C_45 
REMARK   16  A    between atoms: C_45  and  O_47 
ROOT
HETATM    1  C   UNK     0     -26.099  14.464  18.462  0.00  0.00     0.051 C 
HETATM    2  C   UNK     0     -24.822  15.224  18.756  0.00  0.00    -0.031 A 
HETATM    3  C   UNK     0     -23.943  15.840  17.880  0.00  0.00     0.021 A 
HETATM    4  N   UNK     0     -22.917  16.373  18.585  0.00  0.00    -0.361 N 
HETATM    5  C   UNK     0     -23.127  16.117  19.893  0.00  0.00     0.022 A 
HETATM    6  C   UNK     0     -24.309  15.398  20.035  0.00  0.00    -0.027 A 
HETATM    7  C   UNK     0     -22.345  16.565  21.088  0.00  0.00     0.115 C 
HETATM    8  C   UNK     0     -21.871  18.007  21.091  0.00  0.00     0.021 A 
HETATM    9  N   UNK     0     -22.492  19.093  20.605  0.00  0.00    -0.361 N 
HETATM   10  C   UNK     0     -21.660  20.148  20.742  0.00  0.00     0.022 A 
HETATM   11  C   UNK     0     -20.475  19.732  21.340  0.00  0.00    -0.027 A 
HETATM   12  C   UNK     0     -20.601  18.384  21.563  0.00  0.00    -0.031 A 
HETATM   13  C   UNK     0     -19.552  17.503  22.204  0.00  0.00     0.051 C 
HETATM   14  C   UNK     0     -21.928  21.573  20.267  0.00  0.00     0.115 C 
HETATM   15  C   UNK     0     -22.136  21.693  18.766  0.00  0.00     0.021 A 
HETATM   16  N   UNK     0     -23.068  21.080  18.014  0.00  0.00    -0.361 N 
HETATM   17  C   UNK     0     -22.873  21.392  16.731  0.00  0.00     0.022 A 
HETATM   18  C   UNK     0     -21.765  22.258  16.643  0.00  0.00    -0.027 A 
HETATM   19  C   UNK     0     -21.313  22.440  17.925  0.00  0.00    -0.031 A 
HETATM   20  C   UNK     0     -20.146  23.340  18.288  0.00  0.00     0.051 C 
HETATM   21  C   UNK     0     -23.595  20.911  15.493  0.00  0.00     0.115 C 
HETATM   22  C   UNK     0     -24.112  19.492  15.493  0.00  0.00     0.022 A 
HETATM   23  N   UNK     0     -23.517  18.392  15.974  0.00  0.00    -0.361 N 
HETATM   24  C   UNK     0     -24.393  17.370  15.899  0.00  0.00     0.021 A 
HETATM   25  C   UNK     0     -25.577  17.820  15.347  0.00  0.00    -0.031 A 
HETATM   26  C   UNK     0     -26.835  17.041  15.026  0.00  0.00     0.051 C 
HETATM   27  C   UNK     0     -25.421  19.175  15.079  0.00  0.00    -0.027 A 
HETATM   28  C   UNK     0     -24.209  15.949  16.405  0.00  0.00     0.115 C 
HETATM   29  H   UNK     0     -22.031  16.891  18.151  0.00  0.00     0.165 HD
HETATM   30  H   UNK     0     -23.537  19.128  20.211  0.00  0.00     0.165 HD
HETATM   31  H   UNK     0     -23.912  20.451  18.401  0.00  0.00     0.165 HD
HETATM   32  H   UNK     0     -22.457  18.318  16.331  0.00  0.00     0.165 HD
ENDROOT
BRANCH   6  33
HETATM   33  C   UNK     0     -24.978  14.867  21.278  0.00  0.00     0.051 C 
BRANCH  33  34
HETATM   34  C   UNK     0     -24.590  13.428  21.522  0.00  0.00     0.114 C 
BRANCH  34  35
HETATM   35  C   UNK     0     -23.362  13.435  22.369  0.00  0.00     0.139 C 
HETATM   36  O   UNK     0     -23.425  13.802  23.579  0.00  0.00    -0.650 OA
BRANCH  35  37
HETATM   37  O   UNK     0     -22.118  13.045  21.888  0.00  0.00    -0.776 OA
HETATM   38  H   UNK     0     -21.550  12.363  22.365  0.00  0.00     0.167 HD
ENDBRANCH  35  37
ENDBRANCH  34  35
ENDBRANCH  33  34
ENDBRANCH   6  33
BRANCH  27  39
HETATM   39  C   UNK     0     -26.469  19.994  14.411  0.00  0.00     0.051 C 
BRANCH  39  40
HETATM   40  C   UNK     0     -26.113  20.712  13.187  0.00  0.00     0.114 C 
BRANCH  40  41
HETATM   41  C   UNK     0     -26.063  22.155  13.127  0.00  0.00     0.139 C 
HETATM   42  O   UNK     0     -26.632  22.893  13.943  0.00  0.00    -0.650 OA
BRANCH  41  43
HETATM   43  O   UNK     0     -25.327  22.778  12.080  0.00  0.00    -0.776 OA
HETATM   44  H   UNK     0     -25.563  23.750  11.922  0.00  0.00     0.167 HD
ENDBRANCH  41  43
ENDBRANCH  40  41
ENDBRANCH  39  40
ENDBRANCH  27  39
BRANCH  11  45
HETATM   45  C   UNK     0     -19.264  20.550  21.699  0.00  0.00     0.051 C 
BRANCH  45  46
HETATM   46  C   UNK     0     -18.655  21.268  20.551  0.00  0.00     0.114 C 
BRANCH  46  47
HETATM   47  C   UNK     0     -18.163  20.236  19.595  0.00  0.00     0.139 C 
HETATM   48  O   UNK     0     -18.340  20.419  18.382  0.00  0.00    -0.650 OA
BRANCH  47  49
HETATM   49  O   UNK     0     -17.528  19.106  20.046  0.00  0.00    -0.776 OA
HETATM   50  H   UNK     0     -17.508  18.853  21.041  0.00  0.00     0.167 HD
ENDBRANCH  47  49
ENDBRANCH  46  47
ENDBRANCH  45  46
ENDBRANCH  11  45
BRANCH  18  51
HETATM   51  C   UNK     0     -21.182  22.895  15.408  0.00  0.00     0.051 C 
BRANCH  51  52
HETATM   52  C   UNK     0     -22.039  24.117  15.114  0.00  0.00     0.114 C 
BRANCH  52  53
HETATM   53  C   UNK     0     -22.766  23.985  13.837  0.00  0.00     0.139 C 
HETATM   54  O   UNK     0     -23.727  24.730  13.588  0.00  0.00    -0.650 OA
BRANCH  53  55
HETATM   55  O   UNK     0     -22.375  23.031  12.929  0.00  0.00    -0.776 OA
HETATM   56  H   UNK     0     -22.643  22.075  12.935  0.00  0.00     0.167 HD
ENDBRANCH  53  55
ENDBRANCH  52  53
ENDBRANCH  51  52
ENDBRANCH  18  51
TORSDOF 16
ENDMDL
MODEL 14
REMARK VINA RESULT:      -7.7     16.394     20.453
REMARK  16 active torsions:
REMARK  status: ('A' for Active; 'I' for Inactive)
REMARK    1  A    between atoms: C_6  and  C_7 
REMARK    2  A    between atoms: C_7  and  C_8 
REMARK    3  A    between atoms: C_8  and  C_9 
REMARK    4  A    between atoms: C_9  and  O_11 
REMARK    5  A    between atoms: C_16  and  C_17 
REMARK    6  A    between atoms: C_17  and  C_18 
REMARK    7  A    between atoms: C_18  and  C_19 
REMARK    8  A    between atoms: C_19  and  O_21 
REMARK    9  A    between atoms: C_28  and  C_29 
REMARK   10  A    between atoms: C_29  and  C_30 
REMARK   11  A    between atoms: C_30  and  C_31 
REMARK   12  A    between atoms: C_31  and  O_33 
REMARK   13  A    between atoms: C_42  and  C_43 
REMARK   14  A    between atoms: C_43  and  C_44 
REMARK   15  A    between atoms: C_44  and  C_45 
REMARK   16  A    between atoms: C_45  and  O_47 
ROOT
HETATM    1  C   UNK     0     -27.540  16.025  16.257  0.00  0.00     0.051 C 
HETATM    2  C   UNK     0     -26.247  16.100  17.042  0.00  0.00    -0.031 A 
HETATM    3  C   UNK     0     -25.022  16.631  16.671  0.00  0.00     0.021 A 
HETATM    4  N   UNK     0     -24.138  16.450  17.682  0.00  0.00    -0.361 N 
HETATM    5  C   UNK     0     -24.776  15.823  18.691  0.00  0.00     0.022 A 
HETATM    6  C   UNK     0     -26.096  15.585  18.324  0.00  0.00    -0.027 A 
HETATM    7  C   UNK     0     -24.280  15.476  20.060  0.00  0.00     0.115 C 
HETATM    8  C   UNK     0     -23.459  16.533  20.776  0.00  0.00     0.021 A 
HETATM    9  N   UNK     0     -23.600  17.867  20.742  0.00  0.00    -0.361 N 
HETATM   10  C   UNK     0     -22.593  18.415  21.454  0.00  0.00     0.022 A 
HETATM   11  C   UNK     0     -21.786  17.405  21.970  0.00  0.00    -0.027 A 
HETATM   12  C   UNK     0     -22.325  16.217  21.547  0.00  0.00    -0.031 A 
HETATM   13  C   UNK     0     -21.781  14.844  21.872  0.00  0.00     0.051 C 
HETATM   14  C   UNK     0     -22.321  19.906  21.633  0.00  0.00     0.115 C 
HETATM   15  C   UNK     0     -22.050  20.642  20.331  0.00  0.00     0.021 A 
HETATM   16  N   UNK     0     -22.856  20.737  19.257  0.00  0.00    -0.361 N 
HETATM   17  C   UNK     0     -22.224  21.410  18.293  0.00  0.00     0.022 A 
HETATM   18  C   UNK     0     -20.949  21.779  18.764  0.00  0.00    -0.027 A 
HETATM   19  C   UNK     0     -20.852  21.293  20.042  0.00  0.00    -0.031 A 
HETATM   20  C   UNK     0     -19.643  21.501  20.935  0.00  0.00     0.051 C 
HETATM   21  C   UNK     0     -22.662  21.723  16.880  0.00  0.00     0.115 C 
HETATM   22  C   UNK     0     -23.517  20.698  16.171  0.00  0.00     0.022 A 
HETATM   23  N   UNK     0     -23.401  19.364  16.191  0.00  0.00    -0.361 N 
HETATM   24  C   UNK     0     -24.458  18.838  15.540  0.00  0.00     0.021 A 
HETATM   25  C   UNK     0     -25.269  19.858  15.082  0.00  0.00    -0.031 A 
HETATM   26  C   UNK     0     -26.543  19.771  14.267  0.00  0.00     0.051 C 
HETATM   27  C   UNK     0     -24.687  21.059  15.473  0.00  0.00    -0.027 A 
HETATM   28  C   UNK     0     -24.814  17.370  15.380  0.00  0.00     0.115 C 
HETATM   29  H   UNK     0     -23.060  16.732  17.659  0.00  0.00     0.165 HD
HETATM   30  H   UNK     0     -24.439  18.424  20.257  0.00  0.00     0.165 HD
HETATM   31  H   UNK     0     -23.911  20.364  19.195  0.00  0.00     0.165 HD
HETATM   32  H   UNK     0     -22.548  18.782  16.627  0.00  0.00     0.165 HD
ENDROOT
BRANCH   6  33
HETATM   33  C   UNK     0     -27.210  14.914  19.087  0.00  0.00     0.051 C 
BRANCH  33  34
HETATM   34  C   UNK     0     -27.194  13.422  18.853  0.00  0.00     0.114 C 
BRANCH  34  35
HETATM   35  C   UNK     0     -26.731  12.778  20.116  0.00  0.00     0.139 C 
HETATM   36  O   UNK     0     -26.892  13.363  21.226  0.00  0.00    -0.650 OA
BRANCH  35  37
HETATM   37  O   UNK     0     -26.117  11.532  20.140  0.00  0.00    -0.776 OA
HETATM   38  H   UNK     0     -26.562  10.723  20.543  0.00  0.00     0.167 HD
ENDBRANCH  35  37
ENDBRANCH  34  35
ENDBRANCH  33  34
ENDBRANCH   6  33
BRANCH  27  39
HETATM   39  C   UNK     0     -25.240  22.388  15.097  0.00  0.00     0.051 C 
BRANCH  39  40
HETATM   40  C   UNK     0     -24.727  23.037  13.890  0.00  0.00     0.114 C 
BRANCH  40  41
HETATM   41  C   UNK     0     -23.368  23.518  13.792  0.00  0.00     0.139 C 
HETATM   42  O   UNK     0     -22.948  24.510  14.404  0.00  0.00    -0.650 OA
BRANCH  41  43
HETATM   43  O   UNK     0     -22.449  22.827  12.952  0.00  0.00    -0.776 OA
HETATM   44  H   UNK     0     -22.826  22.555  12.053  0.00  0.00     0.167 HD
ENDBRANCH  41  43
ENDBRANCH  40  41
ENDBRANCH  39  40
ENDBRANCH  27  39
BRANCH  11  45
HETATM   45  C   UNK     0     -20.556  17.529  22.829  0.00  0.00     0.051 C 
BRANCH  45  46
HETATM   46  C   UNK     0     -19.309  17.794  22.067  0.00  0.00     0.114 C 
BRANCH  46  47
HETATM   47  C   UNK     0     -18.277  18.235  23.048  0.00  0.00     0.139 C 
HETATM   48  O   UNK     0     -18.595  18.323  24.243  0.00  0.00    -0.650 OA
BRANCH  47  49
HETATM   49  O   UNK     0     -17.002  18.537  22.640  0.00  0.00    -0.776 OA
HETATM   50  H   UNK     0     -16.759  19.454  22.247  0.00  0.00     0.167 HD
ENDBRANCH  47  49
ENDBRANCH  46  47
ENDBRANCH  45  46
ENDBRANCH  11  45
BRANCH  18  51
HETATM   51  C   UNK     0     -19.888  22.570  18.043  0.00  0.00     0.051 C 
BRANCH  51  52
HETATM   52  C   UNK     0     -20.357  24.017  18.050  0.00  0.00     0.114 C 
BRANCH  52  53
HETATM   53  C   UNK     0     -20.259  24.634  16.713  0.00  0.00     0.139 C 
HETATM   54  O   UNK     0     -19.496  24.151  15.861  0.00  0.00    -0.650 OA
BRANCH  53  55
HETATM   55  O   UNK     0     -21.013  25.744  16.420  0.00  0.00    -0.776 OA
HETATM   56  H   UNK     0     -20.990  26.258  15.571  0.00  0.00     0.167 HD
ENDBRANCH  53  55
ENDBRANCH  52  53
ENDBRANCH  51  52
ENDBRANCH  18  51
TORSDOF 16
ENDMDL
MODEL 15
REMARK VINA RESULT:      -7.7     18.182     22.494
REMARK  16 active torsions:
REMARK  status: ('A' for Active; 'I' for Inactive)
REMARK    1  A    between atoms: C_6  and  C_7 
REMARK    2  A    between atoms: C_7  and  C_8 
REMARK    3  A    between atoms: C_8  and  C_9 
REMARK    4  A    between atoms: C_9  and  O_11 
REMARK    5  A    between atoms: C_16  and  C_17 
REMARK    6  A    between atoms: C_17  and  C_18 
REMARK    7  A    between atoms: C_18  and  C_19 
REMARK    8  A    between atoms: C_19  and  O_21 
REMARK    9  A    between atoms: C_28  and  C_29 
REMARK   10  A    between atoms: C_29  and  C_30 
REMARK   11  A    between atoms: C_30  and  C_31 
REMARK   12  A    between atoms: C_31  and  O_33 
REMARK   13  A    between atoms: C_42  and  C_43 
REMARK   14  A    between atoms: C_43  and  C_44 
REMARK   15  A    between atoms: C_44  and  C_45 
REMARK   16  A    between atoms: C_45  and  O_47 
ROOT
HETATM    1  C   UNK     0     -26.221  20.641  13.350  0.00  0.00     0.051 C 
HETATM    2  C   UNK     0     -25.119  20.529  14.384  0.00  0.00    -0.031 A 
HETATM    3  C   UNK     0     -23.921  21.221  14.472  0.00  0.00     0.021 A 
HETATM    4  N   UNK     0     -23.229  20.771  15.545  0.00  0.00    -0.361 N 
HETATM    5  C   UNK     0     -23.963  19.813  16.148  0.00  0.00     0.022 A 
HETATM    6  C   UNK     0     -25.150  19.634  15.446  0.00  0.00    -0.027 A 
HETATM    7  C   UNK     0     -23.696  19.066  17.417  0.00  0.00     0.115 C 
HETATM    8  C   UNK     0     -23.162  19.877  18.585  0.00  0.00     0.021 A 
HETATM    9  N   UNK     0     -23.458  21.139  18.932  0.00  0.00    -0.361 N 
HETATM   10  C   UNK     0     -22.679  21.480  19.980  0.00  0.00     0.022 A 
HETATM   11  C   UNK     0     -21.865  20.405  20.324  0.00  0.00    -0.027 A 
HETATM   12  C   UNK     0     -22.164  19.392  19.449  0.00  0.00    -0.031 A 
HETATM   13  C   UNK     0     -21.525  18.021  19.448  0.00  0.00     0.051 C 
HETATM   14  C   UNK     0     -22.633  22.844  20.663  0.00  0.00     0.115 C 
HETATM   15  C   UNK     0     -22.214  23.979  19.743  0.00  0.00     0.021 A 
HETATM   16  N   UNK     0     -22.809  24.374  18.602  0.00  0.00    -0.361 N 
HETATM   17  C   UNK     0     -22.094  25.359  18.053  0.00  0.00     0.022 A 
HETATM   18  C   UNK     0     -20.986  25.626  18.882  0.00  0.00    -0.027 A 
HETATM   19  C   UNK     0     -21.074  24.756  19.937  0.00  0.00    -0.031 A 
HETATM   20  C   UNK     0     -20.090  24.730  21.093  0.00  0.00     0.051 C 
HETATM   21  C   UNK     0     -22.292  26.091  16.745  0.00  0.00     0.115 C 
HETATM   22  C   UNK     0     -22.864  25.307  15.587  0.00  0.00     0.022 A 
HETATM   23  N   UNK     0     -22.590  24.048  15.220  0.00  0.00    -0.361 N 
HETATM   24  C   UNK     0     -23.432  23.704  14.225  0.00  0.00     0.021 A 
HETATM   25  C   UNK     0     -24.262  24.771  13.937  0.00  0.00    -0.031 A 
HETATM   26  C   UNK     0     -25.338  24.882  12.877  0.00  0.00     0.051 C 
HETATM   27  C   UNK     0     -23.917  25.809  14.795  0.00  0.00    -0.027 A 
HETATM   28  C   UNK     0     -23.566  22.351  13.547  0.00  0.00     0.115 C 
HETATM   29  H   UNK     0     -22.209  21.105  15.846  0.00  0.00     0.165 HD
HETATM   30  H   UNK     0     -24.253  21.775  18.470  0.00  0.00     0.165 HD
HETATM   31  H   UNK     0     -23.779  23.982  18.198  0.00  0.00     0.165 HD
HETATM   32  H   UNK     0     -21.770  23.405  15.632  0.00  0.00     0.165 HD
ENDROOT
BRANCH   6  33
HETATM   33  C   UNK     0     -26.296  18.688  15.702  0.00  0.00     0.051 C 
BRANCH  33  34
HETATM   34  C   UNK     0     -26.239  17.510  14.759  0.00  0.00     0.114 C 
BRANCH  34  35
HETATM   35  C   UNK     0     -25.445  16.440  15.430  0.00  0.00     0.139 C 
HETATM   36  O   UNK     0     -25.601  16.210  16.664  0.00  0.00    -0.650 OA
BRANCH  35  37
HETATM   37  O   UNK     0     -24.519  15.658  14.751  0.00  0.00    -0.776 OA
HETATM   38  H   UNK     0     -24.697  15.299  13.827  0.00  0.00     0.167 HD
ENDBRANCH  35  37
ENDBRANCH  34  35
ENDBRANCH  33  34
ENDBRANCH   6  33
BRANCH  27  39
HETATM   39  C   UNK     0     -24.549  27.154  14.734  0.00  0.00     0.051 C 
BRANCH  39  40
HETATM   40  C   UNK     0     -23.684  28.320  14.557  0.00  0.00     0.114 C 
BRANCH  40  41
HETATM   41  C   UNK     0     -23.834  29.519  15.352  0.00  0.00     0.139 C 
HETATM   42  O   UNK     0     -24.017  29.508  16.577  0.00  0.00    -0.650 OA
BRANCH  41  43
HETATM   43  O   UNK     0     -23.769  30.787  14.709  0.00  0.00    -0.776 OA
HETATM   44  H   UNK     0     -24.670  31.224  14.554  0.00  0.00     0.167 HD
ENDBRANCH  41  43
ENDBRANCH  40  41
ENDBRANCH  39  40
ENDBRANCH  27  39
BRANCH  11  45
HETATM   45  C   UNK     0     -20.845  20.311  21.427  0.00  0.00     0.051 C 
BRANCH  45  46
HETATM   46  C   UNK     0     -19.481  20.744  21.028  0.00  0.00     0.114 C 
BRANCH  46  47
HETATM   47  C   UNK     0     -18.518  19.776  21.627  0.00  0.00     0.139 C 
HETATM   48  O   UNK     0     -18.497  18.616  21.191  0.00  0.00    -0.650 OA
BRANCH  47  49
HETATM   49  O   UNK     0     -17.674  20.158  22.638  0.00  0.00    -0.776 OA
HETATM   50  H   UNK     0     -16.967  19.523  23.028  0.00  0.00     0.167 HD
ENDBRANCH  47  49
ENDBRANCH  46  47
ENDBRANCH  45  46
ENDBRANCH  11  45
BRANCH  18  51
HETATM   51  C   UNK     0     -19.915  26.667  18.689  0.00  0.00     0.051 C 
BRANCH  51  52
HETATM   52  C   UNK     0     -20.453  27.951  19.302  0.00  0.00     0.114 C 
BRANCH  52  53
HETATM   53  C   UNK     0     -19.376  28.780  19.877  0.00  0.00     0.139 C 
HETATM   54  O   UNK     0     -18.457  28.246  20.520  0.00  0.00    -0.650 OA
BRANCH  53  55
HETATM   55  O   UNK     0     -19.398  30.142  19.700  0.00  0.00    -0.776 OA
HETATM   56  H   UNK     0     -19.891  30.796  20.260  0.00  0.00     0.167 HD
ENDBRANCH  53  55
ENDBRANCH  52  53
ENDBRANCH  51  52
ENDBRANCH  18  51
TORSDOF 16
ENDMDL
MODEL 16
REMARK VINA RESULT:      -7.7     20.925     25.749
REMARK  16 active torsions:
REMARK  status: ('A' for Active; 'I' for Inactive)
REMARK    1  A    between atoms: C_6  and  C_7 
REMARK    2  A    between atoms: C_7  and  C_8 
REMARK    3  A    between atoms: C_8  and  C_9 
REMARK    4  A    between atoms: C_9  and  O_11 
REMARK    5  A    between atoms: C_16  and  C_17 
REMARK    6  A    between atoms: C_17  and  C_18 
REMARK    7  A    between atoms: C_18  and  C_19 
REMARK    8  A    between atoms: C_19  and  O_21 
REMARK    9  A    between atoms: C_28  and  C_29 
REMARK   10  A    between atoms: C_29  and  C_30 
REMARK   11  A    between atoms: C_30  and  C_31 
REMARK   12  A    between atoms: C_31  and  O_33 
REMARK   13  A    between atoms: C_42  and  C_43 
REMARK   14  A    between atoms: C_43  and  C_44 
REMARK   15  A    between atoms: C_44  and  C_45 
REMARK   16  A    between atoms: C_45  and  O_47 
ROOT
HETATM    1  C   UNK     0     -18.512  23.324  23.445  0.00  0.00     0.051 C 
HETATM    2  C   UNK     0     -19.666  23.128  22.483  0.00  0.00    -0.031 A 
HETATM    3  C   UNK     0     -20.783  23.922  22.275  0.00  0.00     0.021 A 
HETATM    4  N   UNK     0     -21.569  23.342  21.338  0.00  0.00    -0.361 N 
HETATM    5  C   UNK     0     -20.974  22.200  20.937  0.00  0.00     0.022 A 
HETATM    6  C   UNK     0     -19.782  22.034  21.636  0.00  0.00    -0.027 A 
HETATM    7  C   UNK     0     -21.380  21.241  19.862  0.00  0.00     0.115 C 
HETATM    8  C   UNK     0     -21.874  21.847  18.560  0.00  0.00     0.021 A 
HETATM    9  N   UNK     0     -21.456  22.964  17.946  0.00  0.00    -0.361 N 
HETATM   10  C   UNK     0     -22.240  23.168  16.866  0.00  0.00     0.022 A 
HETATM   11  C   UNK     0     -23.183  22.147  16.777  0.00  0.00    -0.027 A 
HETATM   12  C   UNK     0     -22.958  21.312  17.841  0.00  0.00    -0.031 A 
HETATM   13  C   UNK     0     -23.743  20.057  18.148  0.00  0.00     0.051 C 
HETATM   14  C   UNK     0     -22.167  24.354  15.909  0.00  0.00     0.115 C 
HETATM   15  C   UNK     0     -22.416  25.698  16.575  0.00  0.00     0.021 A 
HETATM   16  N   UNK     0     -21.730  26.250  17.594  0.00  0.00    -0.361 N 
HETATM   17  C   UNK     0     -22.306  27.405  17.935  0.00  0.00     0.022 A 
HETATM   18  C   UNK     0     -23.414  27.621  17.093  0.00  0.00    -0.027 A 
HETATM   19  C   UNK     0     -23.472  26.545  16.245  0.00  0.00    -0.031 A 
HETATM   20  C   UNK     0     -24.505  26.394  15.143  0.00  0.00     0.051 C 
HETATM   21  C   UNK     0     -21.968  28.366  19.053  0.00  0.00     0.115 C 
HETATM   22  C   UNK     0     -21.434  27.780  20.338  0.00  0.00     0.022 A 
HETATM   23  N   UNK     0     -21.828  26.667  20.970  0.00  0.00    -0.361 N 
HETATM   24  C   UNK     0     -20.984  26.442  21.998  0.00  0.00     0.021 A 
HETATM   25  C   UNK     0     -20.030  27.440  22.035  0.00  0.00    -0.031 A 
HETATM   26  C   UNK     0     -18.900  27.644  23.023  0.00  0.00     0.051 C 
HETATM   27  C   UNK     0     -20.297  28.309  20.983  0.00  0.00    -0.027 A 
HETATM   28  C   UNK     0     -20.969  25.255  22.945  0.00  0.00     0.115 C 
HETATM   29  H   UNK     0     -22.559  23.723  20.995  0.00  0.00     0.165 HD
HETATM   30  H   UNK     0     -20.576  23.585  18.244  0.00  0.00     0.165 HD
HETATM   31  H   UNK     0     -20.792  25.840  18.050  0.00  0.00     0.165 HD
HETATM   32  H   UNK     0     -22.732  26.052  20.723  0.00  0.00     0.165 HD
ENDROOT
BRANCH   6  33
HETATM   33  C   UNK     0     -18.761  20.927  21.562  0.00  0.00     0.051 C 
BRANCH  33  34
HETATM   34  C   UNK     0     -19.136  19.789  22.481  0.00  0.00     0.114 C 
BRANCH  34  35
HETATM   35  C   UNK     0     -18.213  18.656  22.189  0.00  0.00     0.139 C 
HETATM   36  O   UNK     0     -18.602  17.684  21.477  0.00  0.00    -0.650 OA
BRANCH  35  37
HETATM   37  O   UNK     0     -16.909  18.609  22.668  0.00  0.00    -0.776 OA
HETATM   38  H   UNK     0     -16.670  18.129  23.521  0.00  0.00     0.167 HD
ENDBRANCH  35  37
ENDBRANCH  34  35
ENDBRANCH  33  34
ENDBRANCH   6  33
BRANCH  27  39
HETATM   39  C   UNK     0     -19.518  29.554  20.742  0.00  0.00     0.051 C 
BRANCH  39  40
HETATM   40  C   UNK     0     -19.996  30.799  21.342  0.00  0.00     0.114 C 
BRANCH  40  41
HETATM   41  C   UNK     0     -20.860  31.715  20.632  0.00  0.00     0.139 C 
HETATM   42  O   UNK     0     -22.083  31.785  20.819  0.00  0.00    -0.650 OA
BRANCH  41  43
HETATM   43  O   UNK     0     -20.293  32.590  19.663  0.00  0.00    -0.776 OA
HETATM   44  H   UNK     0     -19.442  32.244  19.234  0.00  0.00     0.167 HD
ENDBRANCH  41  43
ENDBRANCH  40  41
ENDBRANCH  39  40
ENDBRANCH  27  39
BRANCH  11  45
HETATM   45  C   UNK     0     -24.257  21.946  15.742  0.00  0.00     0.051 C 
BRANCH  45  46
HETATM   46  C   UNK     0     -23.798  21.232  14.523  0.00  0.00     0.114 C 
BRANCH  46  47
HETATM   47  C   UNK     0     -23.823  22.213  13.401  0.00  0.00     0.139 C 
HETATM   48  O   UNK     0     -24.920  22.564  12.945  0.00  0.00    -0.650 OA
BRANCH  47  49
HETATM   49  O   UNK     0     -22.657  22.717  12.881  0.00  0.00    -0.776 OA
HETATM   50  H   UNK     0     -21.737  22.463  13.260  0.00  0.00     0.167 HD
ENDBRANCH  47  49
ENDBRANCH  46  47
ENDBRANCH  45  46
ENDBRANCH  11  45
BRANCH  18  51
HETATM   51  C   UNK     0     -24.354  28.798  17.082  0.00  0.00     0.051 C 
BRANCH  51  52
HETATM   52  C   UNK     0     -23.942  29.662  15.900  0.00  0.00     0.114 C 
BRANCH  52  53
HETATM   53  C   UNK     0     -24.444  31.044  16.027  0.00  0.00     0.139 C 
HETATM   54  O   UNK     0     -23.838  31.978  15.480  0.00  0.00    -0.650 OA
BRANCH  53  55
HETATM   55  O   UNK     0     -25.582  31.289  16.758  0.00  0.00    -0.776 OA
HETATM   56  H   UNK     0     -26.397  31.752  16.431  0.00  0.00     0.167 HD
ENDBRANCH  53  55
ENDBRANCH  52  53
ENDBRANCH  51  52
ENDBRANCH  18  51
TORSDOF 16
ENDMDL
MODEL 17
REMARK VINA RESULT:      -7.7     16.544     21.038
REMARK  16 active torsions:
REMARK  status: ('A' for Active; 'I' for Inactive)
REMARK    1  A    between atoms: C_6  and  C_7 
REMARK    2  A    between atoms: C_7  and  C_8 
REMARK    3  A    between atoms: C_8  and  C_9 
REMARK    4  A    between atoms: C_9  and  O_11 
REMARK    5  A    between atoms: C_16  and  C_17 
REMARK    6  A    between atoms: C_17  and  C_18 
REMARK    7  A    between atoms: C_18  and  C_19 
REMARK    8  A    between atoms: C_19  and  O_21 
REMARK    9  A    between atoms: C_28  and  C_29 
REMARK   10  A    between atoms: C_29  and  C_30 
REMARK   11  A    between atoms: C_30  and  C_31 
REMARK   12  A    between atoms: C_31  and  O_33 
REMARK   13  A    between atoms: C_42  and  C_43 
REMARK   14  A    between atoms: C_43  and  C_44 
REMARK   15  A    between atoms: C_44  and  C_45 
REMARK   16  A    between atoms: C_45  and  O_47 
ROOT
HETATM    1  C   UNK     0     -19.438  21.314  21.737  0.00  0.00     0.051 C 
HETATM    2  C   UNK     0     -20.606  20.527  21.177  0.00  0.00    -0.031 A 
HETATM    3  C   UNK     0     -21.886  20.956  20.864  0.00  0.00     0.021 A 
HETATM    4  N   UNK     0     -22.608  19.900  20.419  0.00  0.00    -0.361 N 
HETATM    5  C   UNK     0     -21.813  18.810  20.432  0.00  0.00     0.022 A 
HETATM    6  C   UNK     0     -20.554  19.166  20.904  0.00  0.00    -0.027 A 
HETATM    7  C   UNK     0     -22.095  17.421  19.953  0.00  0.00     0.115 C 
HETATM    8  C   UNK     0     -22.834  17.292  18.632  0.00  0.00     0.021 A 
HETATM    9  N   UNK     0     -22.736  18.067  17.541  0.00  0.00    -0.361 N 
HETATM   10  C   UNK     0     -23.645  17.637  16.639  0.00  0.00     0.022 A 
HETATM   11  C   UNK     0     -24.340  16.550  17.161  0.00  0.00    -0.027 A 
HETATM   12  C   UNK     0     -23.834  16.327  18.416  0.00  0.00    -0.031 A 
HETATM   13  C   UNK     0     -24.286  15.236  19.360  0.00  0.00     0.051 C 
HETATM   14  C   UNK     0     -23.930  18.264  15.278  0.00  0.00     0.115 C 
HETATM   15  C   UNK     0     -24.409  19.706  15.352  0.00  0.00     0.021 A 
HETATM   16  N   UNK     0     -23.770  20.756  15.900  0.00  0.00    -0.361 N 
HETATM   17  C   UNK     0     -24.554  21.834  15.824  0.00  0.00     0.022 A 
HETATM   18  C   UNK     0     -25.757  21.470  15.189  0.00  0.00    -0.027 A 
HETATM   19  C   UNK     0     -25.653  20.135  14.897  0.00  0.00    -0.031 A 
HETATM   20  C   UNK     0     -26.726  19.344  14.170  0.00  0.00     0.051 C 
HETATM   21  C   UNK     0     -24.335  23.233  16.353  0.00  0.00     0.115 C 
HETATM   22  C   UNK     0     -23.563  23.379  17.644  0.00  0.00     0.022 A 
HETATM   23  N   UNK     0     -23.637  22.620  18.745  0.00  0.00    -0.361 N 
HETATM   24  C   UNK     0     -22.670  23.016  19.597  0.00  0.00     0.021 A 
HETATM   25  C   UNK     0     -21.964  24.063  19.036  0.00  0.00    -0.031 A 
HETATM   26  C   UNK     0     -20.820  24.864  19.622  0.00  0.00     0.051 C 
HETATM   27  C   UNK     0     -22.517  24.313  17.785  0.00  0.00    -0.027 A 
HETATM   28  C   UNK     0     -22.300  22.398  20.935  0.00  0.00     0.115 C 
HETATM   29  H   UNK     0     -23.686  19.925  20.135  0.00  0.00     0.165 HD
HETATM   30  H   UNK     0     -21.993  18.886  17.384  0.00  0.00     0.165 HD
HETATM   31  H   UNK     0     -22.725  20.749  16.305  0.00  0.00     0.165 HD
HETATM   32  H   UNK     0     -24.400  21.825  18.949  0.00  0.00     0.165 HD
ENDROOT
BRANCH   6  33
HETATM   33  C   UNK     0     -19.323  18.322  21.114  0.00  0.00     0.051 C 
BRANCH  33  34
HETATM   34  C   UNK     0     -19.357  17.654  22.468  0.00  0.00     0.114 C 
BRANCH  34  35
HETATM   35  C   UNK     0     -18.219  18.197  23.264  0.00  0.00     0.139 C 
HETATM   36  O   UNK     0     -18.334  18.357  24.514  0.00  0.00    -0.650 OA
BRANCH  35  37
HETATM   37  O   UNK     0     -17.003  18.546  22.690  0.00  0.00    -0.776 OA
HETATM   38  H   UNK     0     -16.872  19.416  22.200  0.00  0.00     0.167 HD
ENDBRANCH  35  37
ENDBRANCH  34  35
ENDBRANCH  33  34
ENDBRANCH   6  33
BRANCH  27  39
HETATM   39  C   UNK     0     -22.063  25.425  16.906  0.00  0.00     0.051 C 
BRANCH  39  40
HETATM   40  C   UNK     0     -21.220  25.099  15.756  0.00  0.00     0.114 C 
BRANCH  40  41
HETATM   41  C   UNK     0     -20.569  23.816  15.616  0.00  0.00     0.139 C 
HETATM   42  O   UNK     0     -19.444  23.566  16.070  0.00  0.00    -0.650 OA
BRANCH  41  43
HETATM   43  O   UNK     0     -21.244  22.771  14.922  0.00  0.00    -0.776 OA
HETATM   44  H   UNK     0     -21.458  21.961  15.491  0.00  0.00     0.167 HD
ENDBRANCH  41  43
ENDBRANCH  40  41
ENDBRANCH  39  40
ENDBRANCH  27  39
BRANCH  11  45
HETATM   45  C   UNK     0     -25.435  15.738  16.523  0.00  0.00     0.051 C 
BRANCH  45  46
HETATM   46  C   UNK     0     -26.707  16.481  16.333  0.00  0.00     0.114 C 
BRANCH  46  47
HETATM   47  C   UNK     0     -27.217  16.142  14.973  0.00  0.00     0.139 C 
HETATM   48  O   UNK     0     -28.442  16.129  14.786  0.00  0.00    -0.650 OA
BRANCH  47  49
HETATM   49  O   UNK     0     -26.350  15.849  13.950  0.00  0.00    -0.776 OA
HETATM   50  H   UNK     0     -26.506  16.183  12.992  0.00  0.00     0.167 HD
ENDBRANCH  47  49
ENDBRANCH  46  47
ENDBRANCH  45  46
ENDBRANCH  11  45
BRANCH  18  51
HETATM   51  C   UNK     0     -26.934  22.352  14.858  0.00  0.00     0.051 C 
BRANCH  51  52
HETATM   52  C   UNK     0     -26.759  22.769  13.405  0.00  0.00     0.114 C 
BRANCH  52  53
HETATM   53  C   UNK     0     -26.142  24.104  13.287  0.00  0.00     0.139 C 
HETATM   54  O   UNK     0     -26.594  25.058  13.940  0.00  0.00    -0.650 OA
BRANCH  53  55
HETATM   55  O   UNK     0     -25.069  24.284  12.448  0.00  0.00    -0.776 OA
HETATM   56  H   UNK     0     -24.292  24.880  12.614  0.00  0.00     0.167 HD
ENDBRANCH  53  55
ENDBRANCH  52  53
ENDBRANCH  51  52
ENDBRANCH  18  51
TORSDOF 16
ENDMDL
MODEL 18
REMARK VINA RESULT:      -7.6     16.735     21.480
REMARK  16 active torsions:
REMARK  status: ('A' for Active; 'I' for Inactive)
REMARK    1  A    between atoms: C_6  and  C_7 
REMARK    2  A    between atoms: C_7  and  C_8 
REMARK    3  A    between atoms: C_8  and  C_9 
REMARK    4  A    between atoms: C_9  and  O_11 
REMARK    5  A    between atoms: C_16  and  C_17 
REMARK    6  A    between atoms: C_17  and  C_18 
REMARK    7  A    between atoms: C_18  and  C_19 
REMARK    8  A    between atoms: C_19  and  O_21 
REMARK    9  A    between atoms: C_28  and  C_29 
REMARK   10  A    between atoms: C_29  and  C_30 
REMARK   11  A    between atoms: C_30  and  C_31 
REMARK   12  A    between atoms: C_31  and  O_33 
REMARK   13  A    between atoms: C_42  and  C_43 
REMARK   14  A    between atoms: C_43  and  C_44 
REMARK   15  A    between atoms: C_44  and  C_45 
REMARK   16  A    between atoms: C_45  and  O_47 
ROOT
HETATM    1  C   UNK     0     -23.250  15.667  18.558  0.00  0.00     0.051 C 
HETATM    2  C   UNK     0     -23.792  16.960  17.983  0.00  0.00    -0.031 A 
HETATM    3  C   UNK     0     -23.841  18.223  18.550  0.00  0.00     0.021 A 
HETATM    4  N   UNK     0     -24.440  19.074  17.683  0.00  0.00    -0.361 N 
HETATM    5  C   UNK     0     -24.766  18.382  16.572  0.00  0.00     0.022 A 
HETATM    6  C   UNK     0     -24.377  17.055  16.727  0.00  0.00    -0.027 A 
HETATM    7  C   UNK     0     -25.358  18.869  15.287  0.00  0.00     0.115 C 
HETATM    8  C   UNK     0     -24.807  20.171  14.733  0.00  0.00     0.021 A 
HETATM    9  N   UNK     0     -23.548  20.634  14.780  0.00  0.00    -0.361 N 
HETATM   10  C   UNK     0     -23.536  21.873  14.244  0.00  0.00     0.022 A 
HETATM   11  C   UNK     0     -24.821  22.214  13.833  0.00  0.00    -0.027 A 
HETATM   12  C   UNK     0     -25.627  21.147  14.138  0.00  0.00    -0.031 A 
HETATM   13  C   UNK     0     -27.112  21.067  13.865  0.00  0.00     0.051 C 
HETATM   14  C   UNK     0     -22.329  22.802  14.148  0.00  0.00     0.115 C 
HETATM   15  C   UNK     0     -21.731  23.175  15.495  0.00  0.00     0.021 A 
HETATM   16  N   UNK     0     -21.240  22.345  16.434  0.00  0.00    -0.361 N 
HETATM   17  C   UNK     0     -20.873  23.059  17.501  0.00  0.00     0.022 A 
HETATM   18  C   UNK     0     -21.129  24.420  17.241  0.00  0.00    -0.027 A 
HETATM   19  C   UNK     0     -21.665  24.479  15.981  0.00  0.00    -0.031 A 
HETATM   20  C   UNK     0     -22.054  25.773  15.290  0.00  0.00     0.051 C 
HETATM   21  C   UNK     0     -20.335  22.601  18.838  0.00  0.00     0.115 C 
HETATM   22  C   UNK     0     -20.842  21.285  19.380  0.00  0.00     0.022 A 
HETATM   23  N   UNK     0     -22.089  20.798  19.344  0.00  0.00    -0.361 N 
HETATM   24  C   UNK     0     -22.063  19.533  19.811  0.00  0.00     0.021 A 
HETATM   25  C   UNK     0     -20.769  19.202  20.166  0.00  0.00    -0.031 A 
HETATM   26  C   UNK     0     -20.247  17.916  20.773  0.00  0.00     0.051 C 
HETATM   27  C   UNK     0     -19.970  20.308  19.900  0.00  0.00    -0.027 A 
HETATM   28  C   UNK     0     -23.212  18.543  19.877  0.00  0.00     0.115 C 
HETATM   29  H   UNK     0     -24.664  20.148  17.879  0.00  0.00     0.165 HD
HETATM   30  H   UNK     0     -22.656  20.068  15.144  0.00  0.00     0.165 HD
HETATM   31  H   UNK     0     -21.104  21.238  16.324  0.00  0.00     0.165 HD
HETATM   32  H   UNK     0     -23.008  21.357  19.029  0.00  0.00     0.165 HD
ENDROOT
BRANCH   6  33
HETATM   33  C   UNK     0     -24.520  15.887  15.785  0.00  0.00     0.051 C 
BRANCH  33  34
HETATM   34  C   UNK     0     -25.820  15.159  16.029  0.00  0.00     0.114 C 
BRANCH  34  35
HETATM   35  C   UNK     0     -26.824  15.703  15.070  0.00  0.00     0.139 C 
HETATM   36  O   UNK     0     -27.967  16.062  15.479  0.00  0.00    -0.650 OA
BRANCH  35  37
HETATM   37  O   UNK     0     -26.563  15.844  13.713  0.00  0.00    -0.776 OA
HETATM   38  H   UNK     0     -26.128  15.113  13.173  0.00  0.00     0.167 HD
ENDBRANCH  35  37
ENDBRANCH  34  35
ENDBRANCH  33  34
ENDBRANCH   6  33
BRANCH  27  39
HETATM   39  C   UNK     0     -18.517  20.354  20.221  0.00  0.00     0.051 C 
BRANCH  39  40
HETATM   40  C   UNK     0     -18.115  20.802  21.553  0.00  0.00     0.114 C 
BRANCH  40  41
HETATM   41  C   UNK     0     -18.048  19.901  22.682  0.00  0.00     0.139 C 
HETATM   42  O   UNK     0     -18.751  20.020  23.694  0.00  0.00    -0.650 OA
BRANCH  41  43
HETATM   43  O   UNK     0     -17.129  18.814  22.645  0.00  0.00    -0.776 OA
HETATM   44  H   UNK     0     -16.290  18.993  22.107  0.00  0.00     0.167 HD
ENDBRANCH  41  43
ENDBRANCH  40  41
ENDBRANCH  39  40
ENDBRANCH  27  39
BRANCH  11  45
HETATM   45  C   UNK     0     -25.294  23.484  13.176  0.00  0.00     0.051 C 
BRANCH  45  46
HETATM   46  C   UNK     0     -25.335  24.657  14.086  0.00  0.00     0.114 C 
BRANCH  46  47
HETATM   47  C   UNK     0     -25.561  25.864  13.240  0.00  0.00     0.139 C 
HETATM   48  O   UNK     0     -26.219  25.742  12.197  0.00  0.00    -0.650 OA
BRANCH  47  49
HETATM   49  O   UNK     0     -25.050  27.084  13.605  0.00  0.00    -0.776 OA
HETATM   50  H   UNK     0     -24.525  27.216  14.478  0.00  0.00     0.167 HD
ENDBRANCH  47  49
ENDBRANCH  46  47
ENDBRANCH  45  46
ENDBRANCH  11  45
BRANCH  18  51
HETATM   51  C   UNK     0     -20.858  25.601  18.136  0.00  0.00     0.051 C 
BRANCH  51  52
HETATM   52  C   UNK     0     -22.163  25.896  18.860  0.00  0.00     0.114 C 
BRANCH  52  53
HETATM   53  C   UNK     0     -22.126  25.448  20.265  0.00  0.00     0.139 C 
HETATM   54  O   UNK     0     -21.462  26.080  21.102  0.00  0.00    -0.650 OA
BRANCH  53  55
HETATM   55  O   UNK     0     -22.827  24.327  20.640  0.00  0.00    -0.776 OA
HETATM   56  H   UNK     0     -23.052  24.063  21.570  0.00  0.00     0.167 HD
ENDBRANCH  53  55
ENDBRANCH  52  53
ENDBRANCH  51  52
ENDBRANCH  18  51
TORSDOF 16
ENDMDL
MODEL 19
REMARK VINA RESULT:      -7.6     16.395     19.970
REMARK  16 active torsions:
REMARK  status: ('A' for Active; 'I' for Inactive)
REMARK    1  A    between atoms: C_6  and  C_7 
REMARK    2  A    between atoms: C_7  and  C_8 
REMARK    3  A    between atoms: C_8  and  C_9 
REMARK    4  A    between atoms: C_9  and  O_11 
REMARK    5  A    between atoms: C_16  and  C_17 
REMARK    6  A    between atoms: C_17  and  C_18 
REMARK    7  A    between atoms: C_18  and  C_19 
REMARK    8  A    between atoms: C_19  and  O_21 
REMARK    9  A    between atoms: C_28  and  C_29 
REMARK   10  A    between atoms: C_29  and  C_30 
REMARK   11  A    between atoms: C_30  and  C_31 
REMARK   12  A    between atoms: C_31  and  O_33 
REMARK   13  A    between atoms: C_42  and  C_43 
REMARK   14  A    between atoms: C_43  and  C_44 
REMARK   15  A    between atoms: C_44  and  C_45 
REMARK   16  A    between atoms: C_45  and  O_47 
ROOT
HETATM    1  C   UNK     0     -25.284  23.240  13.393  0.00  0.00     0.051 C 
HETATM    2  C   UNK     0     -24.744  21.954  13.986  0.00  0.00    -0.031 A 
HETATM    3  C   UNK     0     -23.437  21.604  14.284  0.00  0.00     0.021 A 
HETATM    4  N   UNK     0     -23.419  20.340  14.771  0.00  0.00    -0.361 N 
HETATM    5  C   UNK     0     -24.687  19.881  14.798  0.00  0.00     0.022 A 
HETATM    6  C   UNK     0     -25.542  20.864  14.311  0.00  0.00    -0.027 A 
HETATM    7  C   UNK     0     -25.220  18.588  15.331  0.00  0.00     0.115 C 
HETATM    8  C   UNK     0     -24.652  18.112  16.657  0.00  0.00     0.021 A 
HETATM    9  N   UNK     0     -24.278  18.844  17.717  0.00  0.00    -0.361 N 
HETATM   10  C   UNK     0     -23.746  18.010  18.636  0.00  0.00     0.022 A 
HETATM   11  C   UNK     0     -23.788  16.704  18.158  0.00  0.00    -0.027 A 
HETATM   12  C   UNK     0     -24.358  16.761  16.911  0.00  0.00    -0.031 A 
HETATM   13  C   UNK     0     -24.611  15.572  16.011  0.00  0.00     0.051 C 
HETATM   14  C   UNK     0     -23.132  18.415  19.973  0.00  0.00     0.115 C 
HETATM   15  C   UNK     0     -21.932  19.339  19.844  0.00  0.00     0.021 A 
HETATM   16  N   UNK     0     -21.886  20.549  19.255  0.00  0.00    -0.361 N 
HETATM   17  C   UNK     0     -20.632  21.007  19.290  0.00  0.00     0.022 A 
HETATM   18  C   UNK     0     -19.824  20.053  19.941  0.00  0.00    -0.027 A 
HETATM   19  C   UNK     0     -20.650  19.015  20.284  0.00  0.00    -0.031 A 
HETATM   20  C   UNK     0     -20.188  17.784  21.042  0.00  0.00     0.051 C 
HETATM   21  C   UNK     0     -20.043  22.271  18.707  0.00  0.00     0.115 C 
HETATM   22  C   UNK     0     -20.628  22.780  17.411  0.00  0.00     0.022 A 
HETATM   23  N   UNK     0     -21.013  22.074  16.340  0.00  0.00    -0.361 N 
HETATM   24  C   UNK     0     -21.610  22.915  15.471  0.00  0.00     0.021 A 
HETATM   25  C   UNK     0     -21.600  24.195  15.991  0.00  0.00    -0.031 A 
HETATM   26  C   UNK     0     -22.113  25.479  15.372  0.00  0.00     0.051 C 
HETATM   27  C   UNK     0     -20.976  24.134  17.231  0.00  0.00    -0.027 A 
HETATM   28  C   UNK     0     -22.289  22.566  14.158  0.00  0.00     0.115 C 
HETATM   29  H   UNK     0     -22.505  19.768  15.055  0.00  0.00     0.165 HD
HETATM   30  H   UNK     0     -24.433  19.944  17.841  0.00  0.00     0.165 HD
HETATM   31  H   UNK     0     -22.765  21.114  18.848  0.00  0.00     0.165 HD
HETATM   32  H   UNK     0     -20.828  20.982  16.168  0.00  0.00     0.165 HD
ENDROOT
BRANCH   6  33
HETATM   33  C   UNK     0     -27.039  20.846  14.131  0.00  0.00     0.051 C 
BRANCH  33  34
HETATM   34  C   UNK     0     -27.413  20.175  12.831  0.00  0.00     0.114 C 
BRANCH  34  35
HETATM   35  C   UNK     0     -28.466  19.164  13.138  0.00  0.00     0.139 C 
HETATM   36  O   UNK     0     -29.684  19.505  13.180  0.00  0.00    -0.650 OA
BRANCH  35  37
HETATM   37  O   UNK     0     -28.172  17.828  13.384  0.00  0.00    -0.776 OA
HETATM   38  H   UNK     0     -27.659  17.263  12.727  0.00  0.00     0.167 HD
ENDBRANCH  35  37
ENDBRANCH  34  35
ENDBRANCH  33  34
ENDBRANCH   6  33
BRANCH  27  39
HETATM   39  C   UNK     0     -20.714  25.338  18.067  0.00  0.00     0.051 C 
BRANCH  39  40
HETATM   40  C   UNK     0     -21.564  25.571  19.234  0.00  0.00     0.114 C 
BRANCH  40  41
HETATM   41  C   UNK     0     -22.831  24.897  19.411  0.00  0.00     0.139 C 
HETATM   42  O   UNK     0     -23.904  25.333  18.974  0.00  0.00    -0.650 OA
BRANCH  41  43
HETATM   43  O   UNK     0     -22.864  23.665  20.125  0.00  0.00    -0.776 OA
HETATM   44  H   UNK     0     -22.539  22.865  19.595  0.00  0.00     0.167 HD
ENDBRANCH  41  43
ENDBRANCH  40  41
ENDBRANCH  39  40
ENDBRANCH  27  39
BRANCH  11  45
HETATM   45  C   UNK     0     -23.320  15.440  18.828  0.00  0.00     0.051 C 
BRANCH  45  46
HETATM   46  C   UNK     0     -24.278  14.891  19.822  0.00  0.00     0.114 C 
BRANCH  46  47
HETATM   47  C   UNK     0     -24.930  13.704  19.198  0.00  0.00     0.139 C 
HETATM   48  O   UNK     0     -26.130  13.777  18.899  0.00  0.00    -0.650 OA
BRANCH  47  49
HETATM   49  O   UNK     0     -24.219  12.556  18.960  0.00  0.00    -0.776 OA
HETATM   50  H   UNK     0     -24.211  11.772  19.623  0.00  0.00     0.167 HD
ENDBRANCH  47  49
ENDBRANCH  46  47
ENDBRANCH  45  46
ENDBRANCH  11  45
BRANCH  18  51
HETATM   51  C   UNK     0     -18.350  20.138  20.239  0.00  0.00     0.051 C 
BRANCH  51  52
HETATM   52  C   UNK     0     -18.225  20.855  21.575  0.00  0.00     0.114 C 
BRANCH  52  53
HETATM   53  C   UNK     0     -18.057  19.909  22.694  0.00  0.00     0.139 C 
HETATM   54  O   UNK     0     -18.732  20.042  23.727  0.00  0.00    -0.650 OA
BRANCH  53  55
HETATM   55  O   UNK     0     -17.149  18.883  22.587  0.00  0.00    -0.776 OA
HETATM   56  H   UNK     0     -16.993  18.323  21.782  0.00  0.00     0.167 HD
ENDBRANCH  53  55
ENDBRANCH  52  53
ENDBRANCH  51  52
ENDBRANCH  18  51
TORSDOF 16
ENDMDL
MODEL 20
REMARK VINA RESULT:      -7.6     17.540     22.246
REMARK  16 active torsions:
REMARK  status: ('A' for Active; 'I' for Inactive)
REMARK    1  A    between atoms: C_6  and  C_7 
REMARK    2  A    between atoms: C_7  and  C_8 
REMARK    3  A    between atoms: C_8  and  C_9 
REMARK    4  A    between atoms: C_9  and  O_11 
REMARK    5  A    between atoms: C_16  and  C_17 
REMARK    6  A    between atoms: C_17  and  C_18 
REMARK    7  A    between atoms: C_18  and  C_19 
REMARK    8  A    between atoms: C_19  and  O_21 
REMARK    9  A    between atoms: C_28  and  C_29 
REMARK   10  A    between atoms: C_29  and  C_30 
REMARK   11  A    between atoms: C_30  and  C_31 
REMARK   12  A    between atoms: C_31  and  O_33 
REMARK   13  A    between atoms: C_42  and  C_43 
REMARK   14  A    between atoms: C_43  and  C_44 
REMARK   15  A    between atoms: C_44  and  C_45 
REMARK   16  A    between atoms: C_45  and  O_47 
ROOT
HETATM    1  C   UNK     0     -18.949  22.454  22.740  0.00  0.00     0.051 C 
HETATM    2  C   UNK     0     -19.524  22.590  21.345  0.00  0.00    -0.031 A 
HETATM    3  C   UNK     0     -19.560  21.665  20.315  0.00  0.00     0.021 A 
HETATM    4  N   UNK     0     -20.144  22.232  19.232  0.00  0.00    -0.361 N 
HETATM    5  C   UNK     0     -20.489  23.496  19.554  0.00  0.00     0.022 A 
HETATM    6  C   UNK     0     -20.112  23.754  20.868  0.00  0.00    -0.027 A 
HETATM    7  C   UNK     0     -21.241  24.511  18.751  0.00  0.00     0.115 C 
HETATM    8  C   UNK     0     -22.448  24.011  17.979  0.00  0.00     0.021 A 
HETATM    9  N   UNK     0     -23.331  23.062  18.329  0.00  0.00    -0.361 N 
HETATM   10  C   UNK     0     -24.184  22.881  17.298  0.00  0.00     0.022 A 
HETATM   11  C   UNK     0     -23.847  23.744  16.259  0.00  0.00    -0.027 A 
HETATM   12  C   UNK     0     -22.755  24.458  16.681  0.00  0.00    -0.031 A 
HETATM   13  C   UNK     0     -22.043  25.523  15.877  0.00  0.00     0.051 C 
HETATM   14  C   UNK     0     -25.312  21.856  17.231  0.00  0.00     0.115 C 
HETATM   15  C   UNK     0     -24.841  20.415  17.338  0.00  0.00     0.021 A 
HETATM   16  N   UNK     0     -24.149  19.849  18.345  0.00  0.00    -0.361 N 
HETATM   17  C   UNK     0     -23.868  18.583  18.027  0.00  0.00     0.022 A 
HETATM   18  C   UNK     0     -24.412  18.308  16.757  0.00  0.00    -0.027 A 
HETATM   19  C   UNK     0     -25.020  19.463  16.337  0.00  0.00    -0.031 A 
HETATM   20  C   UNK     0     -25.767  19.593  15.022  0.00  0.00     0.051 C 
HETATM   21  C   UNK     0     -23.059  17.550  18.777  0.00  0.00     0.115 C 
HETATM   22  C   UNK     0     -21.880  18.039  19.585  0.00  0.00     0.022 A 
HETATM   23  N   UNK     0     -20.988  18.985  19.263  0.00  0.00    -0.361 N 
HETATM   24  C   UNK     0     -20.197  19.203  20.333  0.00  0.00     0.021 A 
HETATM   25  C   UNK     0     -20.583  18.371  21.366  0.00  0.00    -0.031 A 
HETATM   26  C   UNK     0     -19.977  18.220  22.746  0.00  0.00     0.051 C 
HETATM   27  C   UNK     0     -21.658  17.616  20.912  0.00  0.00    -0.027 A 
HETATM   28  C   UNK     0     -19.101  20.244  20.482  0.00  0.00     0.115 C 
HETATM   29  H   UNK     0     -20.273  21.748  18.237  0.00  0.00     0.165 HD
HETATM   30  H   UNK     0     -23.385  22.554  19.323  0.00  0.00     0.165 HD
HETATM   31  H   UNK     0     -23.894  20.338  19.321  0.00  0.00     0.165 HD
HETATM   32  H   UNK     0     -20.880  19.476  18.261  0.00  0.00     0.165 HD
ENDROOT
BRANCH   6  33
HETATM   33  C   UNK     0     -20.265  25.007  21.692  0.00  0.00     0.051 C 
BRANCH  33  34
HETATM   34  C   UNK     0     -19.356  26.099  21.180  0.00  0.00     0.114 C 
BRANCH  34  35
HETATM   35  C   UNK     0     -18.366  26.396  22.255  0.00  0.00     0.139 C 
HETATM   36  O   UNK     0     -17.426  27.217  22.046  0.00  0.00    -0.650 OA
BRANCH  35  37
HETATM   37  O   UNK     0     -18.423  25.803  23.510  0.00  0.00    -0.776 OA
HETATM   38  H   UNK     0     -19.227  25.896  24.109  0.00  0.00     0.167 HD
ENDBRANCH  35  37
ENDBRANCH  34  35
ENDBRANCH  33  34
ENDBRANCH   6  33
BRANCH  27  39
HETATM   39  C   UNK     0     -22.304  16.551  21.727  0.00  0.00     0.051 C 
BRANCH  39  40
HETATM   40  C   UNK     0     -21.857  15.170  21.543  0.00  0.00     0.114 C 
BRANCH  40  41
HETATM   41  C   UNK     0     -22.737  14.135  21.051  0.00  0.00     0.139 C 
HETATM   42  O   UNK     0     -23.217  14.132  19.909  0.00  0.00    -0.650 OA
BRANCH  41  43
HETATM   43  O   UNK     0     -23.081  13.053  21.910  0.00  0.00    -0.776 OA
HETATM   44  H   UNK     0     -23.703  13.303  22.670  0.00  0.00     0.167 HD
ENDBRANCH  41  43
ENDBRANCH  40  41
ENDBRANCH  39  40
ENDBRANCH  27  39
BRANCH  11  45
HETATM   45  C   UNK     0     -24.511  23.908  14.919  0.00  0.00     0.051 C 
BRANCH  45  46
HETATM   46  C   UNK     0     -24.545  22.667  14.103  0.00  0.00     0.114 C 
BRANCH  46  47
HETATM   47  C   UNK     0     -23.131  22.268  13.847  0.00  0.00     0.139 C 
HETATM   48  O   UNK     0     -22.680  21.274  14.433  0.00  0.00    -0.650 OA
BRANCH  47  49
HETATM   49  O   UNK     0     -22.344  22.986  12.982  0.00  0.00    -0.776 OA
HETATM   50  H   UNK     0     -22.492  23.989  12.816  0.00  0.00     0.167 HD
ENDBRANCH  47  49
ENDBRANCH  46  47
ENDBRANCH  45  46
ENDBRANCH  11  45
BRANCH  18  51
HETATM   51  C   UNK     0     -24.372  17.009  15.994  0.00  0.00     0.051 C 
BRANCH  51  52
HETATM   52  C   UNK     0     -25.611  16.231  16.413  0.00  0.00     0.114 C 
BRANCH  52  53
HETATM   53  C   UNK     0     -26.556  16.058  15.294  0.00  0.00     0.139 C 
HETATM   54  O   UNK     0     -27.775  15.973  15.517  0.00  0.00    -0.650 OA
BRANCH  53  55
HETATM   55  O   UNK     0     -26.080  15.987  14.007  0.00  0.00    -0.776 OA
HETATM   56  H   UNK     0     -26.577  15.645  13.219  0.00  0.00     0.167 HD
ENDBRANCH  53  55
ENDBRANCH  52  53
ENDBRANCH  51  52
ENDBRANCH  18  51
TORSDOF 16
ENDMDL
