MODEL 1
REMARK VINA RESULT:      -6.3      0.000      0.000
REMARK  28 active torsions:
REMARK  status: ('A' for Active; 'I' for Inactive)
REMARK    1  A    between atoms: C_2  and  O_3 
REMARK    2  A    between atoms: C_2  and  C_4 
REMARK    3  A    between atoms: C_4  and  C_5 
REMARK    4  A    between atoms: C_5  and  C_6 
REMARK    5  A    between atoms: C_7  and  C_8 
REMARK    6  A    between atoms: C_8  and  C_9 
REMARK    7  A    between atoms: C_9  and  O_11 
REMARK    8  A    between atoms: C_28  and  C_29 
REMARK    9  A    between atoms: C_29  and  C_30 
REMARK   10  A    between atoms: C_30  and  O_32 
REMARK   11  A    between atoms: C_33  and  C_34 
REMARK   12  A    between atoms: C_34  and  C_35 
REMARK   13  A    between atoms: C_35  and  C_36 
REMARK   14  A    between atoms: C_36  and  O_38 
REMARK   15  A    between atoms: C_39  and  C_40 
REMARK   16  A    between atoms: C_40  and  C_41 
REMARK   17  A    between atoms: C_41  and  C_42 
REMARK   18  A    between atoms: C_42  and  O_44 
REMARK   19  A    between atoms: C_45  and  C_46 
REMARK   20  A    between atoms: C_46  and  C_47 
REMARK   21  A    between atoms: C_47  and  O_49 
REMARK   22  A    between atoms: C_50  and  C_51 
REMARK   23  A    between atoms: C_51  and  C_52 
REMARK   24  A    between atoms: C_52  and  O_54 
REMARK   25  A    between atoms: C_55  and  C_56 
REMARK   26  A    between atoms: C_56  and  C_57 
REMARK   27  A    between atoms: C_57  and  C_58 
REMARK   28  A    between atoms: C_58  and  O_60 
ROOT
ATOM      1  O   UNK d   0     -11.855 -26.798  50.632  0.00  0.00    -0.650 OA
ATOM      2  C   UNK d   0     -12.124 -28.020  50.618  0.00  0.00     0.139 C 
ENDROOT
BRANCH   2   3
ATOM      3  O   UNK d   0     -12.978 -28.511  49.660  0.00  0.00    -0.776 OA
ATOM      4  H   UNK d   0     -12.642 -29.133  48.922  0.00  0.00     0.167 HD
ENDBRANCH   2   3
BRANCH   2   5
ATOM      5  C   UNK d   0     -11.523 -28.930  51.633  0.00  0.00     0.115 C 
BRANCH   5   6
ATOM      6  C   UNK d   0     -11.812 -30.364  51.279  0.00  0.00     0.052 C 
BRANCH   6   7
ATOM      7  C   UNK d   0     -10.688 -31.009  50.505  0.00  0.00    -0.020 A 
ATOM      8  C   UNK d   0      -9.514 -31.373  50.954  0.00  0.00    -0.011 A 
ATOM      9  C   UNK d   0      -8.768 -31.939  49.843  0.00  0.00     0.067 A 
ATOM     10  C   UNK d   0      -7.500 -32.514  49.663  0.00  0.00     0.062 C 
ATOM     11  N   UNK d   0      -9.562 -31.875  48.753  0.00  0.00    -0.248 NA
ATOM     12  C   UNK d   0      -7.058 -33.263  48.567  0.00  0.00     0.041 A 
ATOM     13  N   UNK d   0      -7.224 -33.080  47.243  0.00  0.00    -0.355 N 
ATOM     14  C   UNK d   0      -6.354 -34.458  48.800  0.00  0.00    -0.022 A 
ATOM     15  C   UNK d   0      -6.651 -34.133  46.630  0.00  0.00     0.042 A 
ATOM     16  H   UNK d   0      -7.719 -32.214  46.751  0.00  0.00     0.166 HD
ATOM     17  C   UNK d   0      -6.537 -34.442  45.260  0.00  0.00     0.062 C 
ATOM     18  C   UNK d   0      -6.096 -35.019  47.574  0.00  0.00    -0.013 A 
ATOM     19  C   UNK d   0      -7.490 -34.365  44.277  0.00  0.00     0.067 A 
ATOM     20  N   UNK d   0      -8.627 -33.735  44.584  0.00  0.00    -0.248 NA
ATOM     21  C   UNK d   0      -7.614 -34.825  42.904  0.00  0.00    -0.011 A 
ATOM     22  C   UNK d   0      -9.486 -33.751  43.512  0.00  0.00     0.066 A 
ATOM     23  C   UNK d   0     -10.696 -33.095  43.682  0.00  0.00     0.062 C 
ATOM     24  C   UNK d   0      -8.786 -34.466  42.464  0.00  0.00    -0.020 A 
ATOM     25  C   UNK d   0     -11.116 -32.338  44.787  0.00  0.00     0.041 A 
ATOM     26  N   UNK d   0     -10.964 -32.527  46.103  0.00  0.00    -0.355 N 
ATOM     27  C   UNK d   0     -11.818 -31.135  44.552  0.00  0.00    -0.022 A 
ATOM     28  C   UNK d   0     -11.542 -31.482  46.716  0.00  0.00     0.042 A 
ATOM     29  H   UNK d   0     -10.476 -33.402  46.596  0.00  0.00     0.166 HD
ATOM     30  C   UNK d   0     -11.671 -31.167  48.078  0.00  0.00     0.062 C 
ATOM     31  C   UNK d   0     -12.091 -30.587  45.768  0.00  0.00    -0.013 A 
ATOM     32  C   UNK d   0     -10.732 -31.327  49.085  0.00  0.00     0.066 A 
BRANCH   8  33
ATOM     33  C   UNK d   0      -9.014 -31.236  52.335  0.00  0.00     0.151 C 
BRANCH  33  34
ATOM     34  C   UNK d   0      -9.746 -32.085  53.293  0.00  0.00     0.143 C 
ATOM     35  O   UNK d   0      -9.783 -33.316  53.154  0.00  0.00    -0.650 OA
BRANCH  34  36
ATOM     36  O   UNK d   0     -10.397 -31.499  54.354  0.00  0.00    -0.776 OA
ATOM     37  H   UNK d   0     -10.507 -30.478  54.415  0.00  0.00     0.167 HD
ENDBRANCH  34  36
ENDBRANCH  33  34
ENDBRANCH   8  33
BRANCH  31  38
ATOM     38  C   UNK d   0     -12.817 -29.285  46.016  0.00  0.00     0.151 C 
BRANCH  38  39
ATOM     39  C   UNK d   0     -11.927 -28.145  46.056  0.00  0.00     0.143 C 
ATOM     40  O   UNK d   0     -11.328 -27.804  47.091  0.00  0.00    -0.650 OA
BRANCH  39  41
ATOM     41  O   UNK d   0     -11.724 -27.392  44.900  0.00  0.00    -0.776 OA
ATOM     42  H   UNK d   0     -12.195 -26.483  44.852  0.00  0.00     0.167 HD
ENDBRANCH  39  41
ENDBRANCH  38  39
ENDBRANCH  31  38
BRANCH  27  43
ATOM     43  C   UNK d   0     -12.231 -30.505  43.245  0.00  0.00     0.052 C 
BRANCH  43  44
ATOM     44  C   UNK d   0     -13.684 -30.674  42.941  0.00  0.00     0.115 C 
BRANCH  44  45
ATOM     45  C   UNK d   0     -14.192 -29.336  42.539  0.00  0.00     0.139 C 
ATOM     46  O   UNK d   0     -13.426 -28.349  42.671  0.00  0.00    -0.650 OA
BRANCH  45  47
ATOM     47  O   UNK d   0     -15.456 -29.139  42.027  0.00  0.00    -0.776 OA
ATOM     48  H   UNK d   0     -15.625 -28.820  41.060  0.00  0.00     0.167 HD
ENDBRANCH  45  47
ENDBRANCH  44  45
ENDBRANCH  43  44
ENDBRANCH  27  43
BRANCH  24  49
ATOM     49  C   UNK d   0      -9.312 -34.696  41.107  0.00  0.00     0.052 C 
BRANCH  49  50
ATOM     50  C   UNK d   0      -9.392 -33.396  40.349  0.00  0.00     0.115 C 
BRANCH  50  51
ATOM     51  C   UNK d   0      -8.134 -32.784  39.942  0.00  0.00     0.139 C 
ATOM     52  O   UNK d   0      -7.913 -31.555  40.052  0.00  0.00    -0.650 OA
BRANCH  51  53
ATOM     53  O   UNK d   0      -7.129 -33.574  39.406  0.00  0.00    -0.776 OA
ATOM     54  H   UNK d   0      -6.321 -33.118  39.020  0.00  0.00     0.167 HD
ENDBRANCH  51  53
ENDBRANCH  50  51
ENDBRANCH  49  50
ENDBRANCH  24  49
BRANCH  21  55
ATOM     55  C   UNK d   0      -6.547 -35.572  42.174  0.00  0.00     0.151 C 
BRANCH  55  56
ATOM     56  C   UNK d   0      -6.514 -36.993  42.549  0.00  0.00     0.143 C 
ATOM     57  O   UNK d   0      -7.289 -37.839  42.060  0.00  0.00    -0.650 OA
BRANCH  56  58
ATOM     58  O   UNK d   0      -5.569 -37.394  43.491  0.00  0.00    -0.776 OA
ATOM     59  H   UNK d   0      -4.663 -37.706  43.096  0.00  0.00     0.167 HD
ENDBRANCH  56  58
ENDBRANCH  55  56
ENDBRANCH  21  55
BRANCH  18  60
ATOM     60  C   UNK d   0      -5.364 -36.321  47.355  0.00  0.00     0.151 C 
BRANCH  60  61
ATOM     61  C   UNK d   0      -6.399 -37.366  47.331  0.00  0.00     0.143 C 
ATOM     62  O   UNK d   0      -6.853 -37.983  48.294  0.00  0.00    -0.650 OA
BRANCH  61  63
ATOM     63  O   UNK d   0      -6.911 -37.676  46.048  0.00  0.00    -0.776 OA
ATOM     64  H   UNK d   0      -7.745 -37.235  45.702  0.00  0.00     0.167 HD
ENDBRANCH  61  63
ENDBRANCH  60  61
ENDBRANCH  18  60
BRANCH  14  65
ATOM     65  C   UNK d   0      -5.828 -35.055  50.074  0.00  0.00     0.052 C 
BRANCH  65  66
ATOM     66  C   UNK d   0      -6.877 -35.751  50.867  0.00  0.00     0.115 C 
BRANCH  66  67
ATOM     67  C   UNK d   0      -7.222 -35.264  52.173  0.00  0.00     0.139 C 
ATOM     68  O   UNK d   0      -6.621 -34.217  52.616  0.00  0.00    -0.650 OA
BRANCH  67  69
ATOM     69  O   UNK d   0      -8.157 -35.794  53.062  0.00  0.00    -0.776 OA
ATOM     70  H   UNK d   0      -8.209 -35.335  53.983  0.00  0.00     0.167 HD
ENDBRANCH  67  69
ENDBRANCH  66  67
ENDBRANCH  65  66
ENDBRANCH  14  65
ENDBRANCH   6   7
ENDBRANCH   5   6
ENDBRANCH   2   5
TORSDOF 28
ENDMDL
MODEL 2
REMARK VINA RESULT:      -6.3     15.313     22.537
REMARK  28 active torsions:
REMARK  status: ('A' for Active; 'I' for Inactive)
REMARK    1  A    between atoms: C_2  and  O_3 
REMARK    2  A    between atoms: C_2  and  C_4 
REMARK    3  A    between atoms: C_4  and  C_5 
REMARK    4  A    between atoms: C_5  and  C_6 
REMARK    5  A    between atoms: C_7  and  C_8 
REMARK    6  A    between atoms: C_8  and  C_9 
REMARK    7  A    between atoms: C_9  and  O_11 
REMARK    8  A    between atoms: C_28  and  C_29 
REMARK    9  A    between atoms: C_29  and  C_30 
REMARK   10  A    between atoms: C_30  and  O_32 
REMARK   11  A    between atoms: C_33  and  C_34 
REMARK   12  A    between atoms: C_34  and  C_35 
REMARK   13  A    between atoms: C_35  and  C_36 
REMARK   14  A    between atoms: C_36  and  O_38 
REMARK   15  A    between atoms: C_39  and  C_40 
REMARK   16  A    between atoms: C_40  and  C_41 
REMARK   17  A    between atoms: C_41  and  C_42 
REMARK   18  A    between atoms: C_42  and  O_44 
REMARK   19  A    between atoms: C_45  and  C_46 
REMARK   20  A    between atoms: C_46  and  C_47 
REMARK   21  A    between atoms: C_47  and  O_49 
REMARK   22  A    between atoms: C_50  and  C_51 
REMARK   23  A    between atoms: C_51  and  C_52 
REMARK   24  A    between atoms: C_52  and  O_54 
REMARK   25  A    between atoms: C_55  and  C_56 
REMARK   26  A    between atoms: C_56  and  C_57 
REMARK   27  A    between atoms: C_57  and  C_58 
REMARK   28  A    between atoms: C_58  and  O_60 
ROOT
ATOM      1  O   UNK d   0     -20.390 -22.042  55.103  0.00  0.00    -0.650 OA
ATOM      2  C   UNK d   0     -19.324 -22.430  54.575  0.00  0.00     0.139 C 
ENDROOT
BRANCH   2   3
ATOM      3  O   UNK d   0     -19.304 -22.719  53.231  0.00  0.00    -0.776 OA
ATOM      4  H   UNK d   0     -19.011 -23.638  52.894  0.00  0.00     0.167 HD
ENDBRANCH   2   3
BRANCH   2   5
ATOM      5  C   UNK d   0     -18.091 -22.577  55.399  0.00  0.00     0.115 C 
BRANCH   5   6
ATOM      6  C   UNK d   0     -17.427 -21.239  55.579  0.00  0.00     0.052 C 
BRANCH   6   7
ATOM      7  C   UNK d   0     -17.614 -20.680  56.969  0.00  0.00    -0.020 A 
ATOM      8  C   UNK d   0     -18.259 -19.595  57.312  0.00  0.00    -0.011 A 
ATOM      9  C   UNK d   0     -18.162 -19.457  58.756  0.00  0.00     0.067 A 
ATOM     10  C   UNK d   0     -18.636 -18.556  59.722  0.00  0.00     0.062 C 
ATOM     11  N   UNK d   0     -17.435 -20.499  59.210  0.00  0.00    -0.248 NA
ATOM     12  C   UNK d   0     -18.674 -18.741  61.108  0.00  0.00     0.041 A 
ATOM     13  N   UNK d   0     -17.767 -19.260  61.958  0.00  0.00    -0.355 N 
ATOM     14  C   UNK d   0     -19.846 -18.403  61.808  0.00  0.00    -0.022 A 
ATOM     15  C   UNK d   0     -18.337 -19.267  63.178  0.00  0.00     0.042 A 
ATOM     16  H   UNK d   0     -16.738 -19.596  61.704  0.00  0.00     0.166 HD
ATOM     17  C   UNK d   0     -17.831 -19.700  64.419  0.00  0.00     0.062 C 
ATOM     18  C   UNK d   0     -19.641 -18.737  63.124  0.00  0.00    -0.013 A 
ATOM     19  C   UNK d   0     -17.140 -20.847  64.716  0.00  0.00     0.067 A 
ATOM     20  N   UNK d   0     -16.702 -21.573  63.684  0.00  0.00    -0.248 NA
ATOM     21  C   UNK d   0     -16.738 -21.541  65.929  0.00  0.00    -0.011 A 
ATOM     22  C   UNK d   0     -16.045 -22.692  64.134  0.00  0.00     0.066 A 
ATOM     23  C   UNK d   0     -15.503 -23.521  63.163  0.00  0.00     0.062 C 
ATOM     24  C   UNK d   0     -16.102 -22.622  65.581  0.00  0.00    -0.020 A 
ATOM     25  C   UNK d   0     -15.464 -23.310  61.776  0.00  0.00     0.041 A 
ATOM     26  N   UNK d   0     -16.371 -22.808  60.929  0.00  0.00    -0.355 N 
ATOM     27  C   UNK d   0     -14.286 -23.646  61.074  0.00  0.00    -0.022 A 
ATOM     28  C   UNK d   0     -15.809 -22.808  59.710  0.00  0.00     0.042 A 
ATOM     29  H   UNK d   0     -17.409 -22.480  61.184  0.00  0.00     0.166 HD
ATOM     30  C   UNK d   0     -16.303 -22.389  58.465  0.00  0.00     0.062 C 
ATOM     31  C   UNK d   0     -14.495 -23.331  59.767  0.00  0.00    -0.013 A 
ATOM     32  C   UNK d   0     -17.075 -21.272  58.184  0.00  0.00     0.066 A 
BRANCH   8  33
ATOM     33  C   UNK d   0     -18.962 -18.661  56.413  0.00  0.00     0.151 C 
BRANCH  33  34
ATOM     34  C   UNK d   0     -20.414 -18.610  56.664  0.00  0.00     0.143 C 
ATOM     35  O   UNK d   0     -20.926 -17.641  57.242  0.00  0.00    -0.650 OA
BRANCH  34  36
ATOM     36  O   UNK d   0     -21.207 -19.656  56.252  0.00  0.00    -0.776 OA
ATOM     37  H   UNK d   0     -21.067 -20.104  55.336  0.00  0.00     0.167 HD
ENDBRANCH  34  36
ENDBRANCH  33  34
ENDBRANCH   8  33
BRANCH  31  38
ATOM     38  C   UNK d   0     -13.504 -23.502  58.639  0.00  0.00     0.151 C 
BRANCH  38  39
ATOM     39  C   UNK d   0     -13.651 -24.767  57.950  0.00  0.00     0.143 C 
ATOM     40  O   UNK d   0     -13.283 -24.930  56.773  0.00  0.00    -0.650 OA
BRANCH  39  41
ATOM     41  O   UNK d   0     -14.223 -25.850  58.617  0.00  0.00    -0.776 OA
ATOM     42  H   UNK d   0     -14.630 -26.587  58.035  0.00  0.00     0.167 HD
ENDBRANCH  39  41
ENDBRANCH  38  39
ENDBRANCH  31  38
BRANCH  27  43
ATOM     43  C   UNK d   0     -13.001 -24.243  61.590  0.00  0.00     0.052 C 
BRANCH  43  44
ATOM     44  C   UNK d   0     -12.057 -23.225  62.144  0.00  0.00     0.115 C 
BRANCH  44  45
ATOM     45  C   UNK d   0     -10.812 -23.317  61.337  0.00  0.00     0.139 C 
ATOM     46  O   UNK d   0     -10.681 -24.296  60.561  0.00  0.00    -0.650 OA
BRANCH  45  47
ATOM     47  O   UNK d   0      -9.808 -22.376  61.402  0.00  0.00    -0.776 OA
ATOM     48  H   UNK d   0      -9.690 -21.632  60.695  0.00  0.00     0.167 HD
ENDBRANCH  45  47
ENDBRANCH  44  45
ENDBRANCH  43  44
ENDBRANCH  27  43
BRANCH  24  49
ATOM     49  C   UNK d   0     -15.487 -23.600  66.495  0.00  0.00     0.052 C 
BRANCH  49  50
ATOM     50  C   UNK d   0     -13.991 -23.621  66.312  0.00  0.00     0.115 C 
BRANCH  50  51
ATOM     51  C   UNK d   0     -13.361 -24.924  66.148  0.00  0.00     0.139 C 
ATOM     52  O   UNK d   0     -13.537 -25.638  65.133  0.00  0.00    -0.650 OA
BRANCH  51  53
ATOM     53  O   UNK d   0     -12.530 -25.414  67.144  0.00  0.00    -0.776 OA
ATOM     54  H   UNK d   0     -12.030 -24.754  67.714  0.00  0.00     0.167 HD
ENDBRANCH  51  53
ENDBRANCH  50  51
ENDBRANCH  49  50
ENDBRANCH  24  49
BRANCH  21  55
ATOM     55  C   UNK d   0     -17.029 -21.048  67.308  0.00  0.00     0.151 C 
BRANCH  55  56
ATOM     56  C   UNK d   0     -16.024 -20.079  67.771  0.00  0.00     0.143 C 
ATOM     57  O   UNK d   0     -16.207 -18.847  67.733  0.00  0.00    -0.650 OA
BRANCH  56  58
ATOM     58  O   UNK d   0     -14.822 -20.579  68.270  0.00  0.00    -0.776 OA
ATOM     59  H   UNK d   0     -14.182 -19.865  68.662  0.00  0.00     0.167 HD
ENDBRANCH  56  58
ENDBRANCH  55  56
ENDBRANCH  21  55
BRANCH  18  60
ATOM     60  C   UNK d   0     -20.649 -18.551  64.230  0.00  0.00     0.151 C 
BRANCH  60  61
ATOM     61  C   UNK d   0     -20.214 -17.361  64.977  0.00  0.00     0.143 C 
ATOM     62  O   UNK d   0     -19.745 -16.323  64.511  0.00  0.00    -0.650 OA
BRANCH  61  63
ATOM     63  O   UNK d   0     -20.363 -17.444  66.383  0.00  0.00    -0.776 OA
ATOM     64  H   UNK d   0     -21.264 -17.342  66.815  0.00  0.00     0.167 HD
ENDBRANCH  61  63
ENDBRANCH  60  61
ENDBRANCH  18  60
BRANCH  14  65
ATOM     65  C   UNK d   0     -21.095 -17.704  61.351  0.00  0.00     0.052 C 
BRANCH  65  66
ATOM     66  C   UNK d   0     -20.930 -16.229  61.243  0.00  0.00     0.115 C 
BRANCH  66  67
ATOM     67  C   UNK d   0     -21.956 -15.442  60.618  0.00  0.00     0.139 C 
ATOM     68  O   UNK d   0     -21.785 -15.065  59.401  0.00  0.00    -0.650 OA
BRANCH  67  69
ATOM     69  O   UNK d   0     -23.160 -15.014  61.175  0.00  0.00    -0.776 OA
ATOM     70  H   UNK d   0     -23.772 -14.467  60.552  0.00  0.00     0.167 HD
ENDBRANCH  67  69
ENDBRANCH  66  67
ENDBRANCH  65  66
ENDBRANCH  14  65
ENDBRANCH   6   7
ENDBRANCH   5   6
ENDBRANCH   2   5
TORSDOF 28
ENDMDL
MODEL 3
REMARK VINA RESULT:      -6.2      1.590      4.734
REMARK  28 active torsions:
REMARK  status: ('A' for Active; 'I' for Inactive)
REMARK    1  A    between atoms: C_2  and  O_3 
REMARK    2  A    between atoms: C_2  and  C_4 
REMARK    3  A    between atoms: C_4  and  C_5 
REMARK    4  A    between atoms: C_5  and  C_6 
REMARK    5  A    between atoms: C_7  and  C_8 
REMARK    6  A    between atoms: C_8  and  C_9 
REMARK    7  A    between atoms: C_9  and  O_11 
REMARK    8  A    between atoms: C_28  and  C_29 
REMARK    9  A    between atoms: C_29  and  C_30 
REMARK   10  A    between atoms: C_30  and  O_32 
REMARK   11  A    between atoms: C_33  and  C_34 
REMARK   12  A    between atoms: C_34  and  C_35 
REMARK   13  A    between atoms: C_35  and  C_36 
REMARK   14  A    between atoms: C_36  and  O_38 
REMARK   15  A    between atoms: C_39  and  C_40 
REMARK   16  A    between atoms: C_40  and  C_41 
REMARK   17  A    between atoms: C_41  and  C_42 
REMARK   18  A    between atoms: C_42  and  O_44 
REMARK   19  A    between atoms: C_45  and  C_46 
REMARK   20  A    between atoms: C_46  and  C_47 
REMARK   21  A    between atoms: C_47  and  O_49 
REMARK   22  A    between atoms: C_50  and  C_51 
REMARK   23  A    between atoms: C_51  and  C_52 
REMARK   24  A    between atoms: C_52  and  O_54 
REMARK   25  A    between atoms: C_55  and  C_56 
REMARK   26  A    between atoms: C_56  and  C_57 
REMARK   27  A    between atoms: C_57  and  C_58 
REMARK   28  A    between atoms: C_58  and  O_60 
ROOT
ATOM      1  O   UNK d   0      -9.956 -34.507  54.319  0.00  0.00    -0.650 OA
ATOM      2  C   UNK d   0      -9.976 -33.293  54.619  0.00  0.00     0.139 C 
ENDROOT
BRANCH   2   3
ATOM      3  O   UNK d   0      -9.943 -32.926  55.943  0.00  0.00    -0.776 OA
ATOM      4  H   UNK d   0      -9.685 -33.596  56.670  0.00  0.00     0.167 HD
ENDBRANCH   2   3
BRANCH   2   5
ATOM      5  C   UNK d   0     -10.037 -32.258  53.548  0.00  0.00     0.115 C 
BRANCH   5   6
ATOM      6  C   UNK d   0      -8.654 -31.957  53.040  0.00  0.00     0.052 C 
BRANCH   6   7
ATOM      7  C   UNK d   0      -8.414 -32.495  51.650  0.00  0.00    -0.020 A 
ATOM      8  C   UNK d   0      -7.545 -33.402  51.284  0.00  0.00    -0.011 A 
ATOM      9  C   UNK d   0      -7.674 -33.588  49.848  0.00  0.00     0.067 A 
ATOM     10  C   UNK d   0      -7.072 -34.400  48.874  0.00  0.00     0.062 C 
ATOM     11  N   UNK d   0      -8.642 -32.750  49.421  0.00  0.00    -0.248 NA
ATOM     12  C   UNK d   0      -7.526 -34.639  47.573  0.00  0.00     0.041 A 
ATOM     13  N   UNK d   0      -8.034 -33.807  46.644  0.00  0.00    -0.355 N 
ATOM     14  C   UNK d   0      -7.538 -35.960  47.088  0.00  0.00    -0.022 A 
ATOM     15  C   UNK d   0      -8.375 -34.566  45.586  0.00  0.00     0.042 A 
ATOM     16  H   UNK d   0      -8.131 -32.702  46.727  0.00  0.00     0.166 HD
ATOM     17  C   UNK d   0      -8.946 -34.206  44.349  0.00  0.00     0.062 C 
ATOM     18  C   UNK d   0      -8.079 -35.922  45.827  0.00  0.00    -0.013 A 
ATOM     19  C   UNK d   0      -9.990 -33.353  44.097  0.00  0.00     0.067 A 
ATOM     20  N   UNK d   0     -10.416 -32.601  45.115  0.00  0.00    -0.248 NA
ATOM     21  C   UNK d   0     -10.825 -33.034  42.951  0.00  0.00    -0.011 A 
ATOM     22  C   UNK d   0     -11.470 -31.815  44.718  0.00  0.00     0.066 A 
ATOM     23  C   UNK d   0     -11.988 -30.952  45.672  0.00  0.00     0.062 C 
ATOM     24  C   UNK d   0     -11.691 -32.136  43.322  0.00  0.00    -0.020 A 
ATOM     25  C   UNK d   0     -11.510 -30.717  46.971  0.00  0.00     0.041 A 
ATOM     26  N   UNK d   0     -11.019 -31.546  47.899  0.00  0.00    -0.355 N 
ATOM     27  C   UNK d   0     -11.494 -29.391  47.455  0.00  0.00    -0.022 A 
ATOM     28  C   UNK d   0     -10.686 -30.793  48.959  0.00  0.00     0.042 A 
ATOM     29  H   UNK d   0     -10.932 -32.658  47.818  0.00  0.00     0.166 HD
ATOM     30  C   UNK d   0     -10.127 -31.139  50.199  0.00  0.00     0.062 C 
ATOM     31  C   UNK d   0     -10.974 -29.429  48.712  0.00  0.00    -0.013 A 
ATOM     32  C   UNK d   0      -9.128 -32.065  50.457  0.00  0.00     0.066 A 
BRANCH   8  33
ATOM     33  C   UNK d   0      -6.591 -34.115  52.153  0.00  0.00     0.151 C 
BRANCH  33  34
ATOM     34  C   UNK d   0      -6.859 -35.563  52.226  0.00  0.00     0.143 C 
ATOM     35  O   UNK d   0      -6.128 -36.376  51.643  0.00  0.00    -0.650 OA
BRANCH  34  36
ATOM     36  O   UNK d   0      -7.937 -36.015  52.952  0.00  0.00    -0.776 OA
ATOM     37  H   UNK d   0      -8.517 -35.369  53.505  0.00  0.00     0.167 HD
ENDBRANCH  34  36
ENDBRANCH  33  34
ENDBRANCH   8  33
BRANCH  31  38
ATOM     38  C   UNK d   0     -10.750 -28.243  49.621  0.00  0.00     0.151 C 
BRANCH  38  39
ATOM     39  C   UNK d   0     -11.979 -27.730  50.187  0.00  0.00     0.143 C 
ATOM     40  O   UNK d   0     -12.830 -28.470  50.712  0.00  0.00    -0.650 OA
BRANCH  39  41
ATOM     41  O   UNK d   0     -12.231 -26.359  50.152  0.00  0.00    -0.776 OA
ATOM     42  H   UNK d   0     -13.178 -26.070  49.887  0.00  0.00     0.167 HD
ENDBRANCH  39  41
ENDBRANCH  38  39
ENDBRANCH  31  38
BRANCH  27  43
ATOM     43  C   UNK d   0     -11.948 -28.119  46.782  0.00  0.00     0.052 C 
BRANCH  43  44
ATOM     44  C   UNK d   0     -10.864 -27.443  46.006  0.00  0.00     0.115 C 
BRANCH  44  45
ATOM     45  C   UNK d   0     -10.740 -26.069  46.560  0.00  0.00     0.139 C 
ATOM     46  O   UNK d   0     -11.634 -25.664  47.344  0.00  0.00    -0.650 OA
BRANCH  45  47
ATOM     47  O   UNK d   0      -9.689 -25.232  46.254  0.00  0.00    -0.776 OA
ATOM     48  H   UNK d   0      -9.207 -24.656  46.963  0.00  0.00     0.167 HD
ENDBRANCH  45  47
ENDBRANCH  44  45
ENDBRANCH  43  44
ENDBRANCH  27  43
BRANCH  24  49
ATOM     49  C   UNK d   0     -12.706 -31.501  42.463  0.00  0.00     0.052 C 
BRANCH  49  50
ATOM     50  C   UNK d   0     -14.077 -32.038  42.786  0.00  0.00     0.115 C 
BRANCH  50  51
ATOM     51  C   UNK d   0     -15.111 -31.066  43.115  0.00  0.00     0.139 C 
ATOM     52  O   UNK d   0     -14.933 -30.144  43.946  0.00  0.00    -0.650 OA
BRANCH  51  53
ATOM     53  O   UNK d   0     -16.350 -31.147  42.499  0.00  0.00    -0.776 OA
ATOM     54  H   UNK d   0     -16.450 -31.764  41.712  0.00  0.00     0.167 HD
ENDBRANCH  51  53
ENDBRANCH  50  51
ENDBRANCH  49  50
ENDBRANCH  24  49
BRANCH  21  55
ATOM     55  C   UNK d   0     -10.666 -33.656  41.603  0.00  0.00     0.151 C 
BRANCH  55  56
ATOM     56  C   UNK d   0      -9.613 -33.001  40.813  0.00  0.00     0.143 C 
ATOM     57  O   UNK d   0      -9.816 -31.974  40.137  0.00  0.00    -0.650 OA
BRANCH  56  58
ATOM     58  O   UNK d   0      -8.339 -33.566  40.835  0.00  0.00    -0.776 OA
ATOM     59  H   UNK d   0      -8.244 -34.449  40.301  0.00  0.00     0.167 HD
ENDBRANCH  56  58
ENDBRANCH  55  56
ENDBRANCH  21  55
BRANCH  18  60
ATOM     60  C   UNK d   0      -8.288 -37.124  44.940  0.00  0.00     0.151 C 
BRANCH  60  61
ATOM     61  C   UNK d   0      -7.188 -37.102  43.964  0.00  0.00     0.143 C 
ATOM     62  O   UNK d   0      -6.003 -36.850  44.187  0.00  0.00    -0.650 OA
BRANCH  61  63
ATOM     63  O   UNK d   0      -7.557 -37.407  42.632  0.00  0.00    -0.776 OA
ATOM     64  H   UNK d   0      -6.863 -37.610  41.935  0.00  0.00     0.167 HD
ENDBRANCH  61  63
ENDBRANCH  60  61
ENDBRANCH  18  60
BRANCH  14  65
ATOM     65  C   UNK d   0      -6.991 -37.227  47.681  0.00  0.00     0.052 C 
BRANCH  65  66
ATOM     66  C   UNK d   0      -5.505 -37.289  47.654  0.00  0.00     0.115 C 
BRANCH  66  67
ATOM     67  C   UNK d   0      -4.812 -38.154  48.565  0.00  0.00     0.139 C 
ATOM     68  O   UNK d   0      -4.600 -39.373  48.214  0.00  0.00    -0.650 OA
BRANCH  67  69
ATOM     69  O   UNK d   0      -4.317 -37.841  49.831  0.00  0.00    -0.776 OA
ATOM     70  H   UNK d   0      -3.828 -36.937  49.909  0.00  0.00     0.167 HD
ENDBRANCH  67  69
ENDBRANCH  66  67
ENDBRANCH  65  66
ENDBRANCH  14  65
ENDBRANCH   6   7
ENDBRANCH   5   6
ENDBRANCH   2   5
TORSDOF 28
ENDMDL
MODEL 4
REMARK VINA RESULT:      -6.2      1.586      7.520
REMARK  28 active torsions:
REMARK  status: ('A' for Active; 'I' for Inactive)
REMARK    1  A    between atoms: C_2  and  O_3 
REMARK    2  A    between atoms: C_2  and  C_4 
REMARK    3  A    between atoms: C_4  and  C_5 
REMARK    4  A    between atoms: C_5  and  C_6 
REMARK    5  A    between atoms: C_7  and  C_8 
REMARK    6  A    between atoms: C_8  and  C_9 
REMARK    7  A    between atoms: C_9  and  O_11 
REMARK    8  A    between atoms: C_28  and  C_29 
REMARK    9  A    between atoms: C_29  and  C_30 
REMARK   10  A    between atoms: C_30  and  O_32 
REMARK   11  A    between atoms: C_33  and  C_34 
REMARK   12  A    between atoms: C_34  and  C_35 
REMARK   13  A    between atoms: C_35  and  C_36 
REMARK   14  A    between atoms: C_36  and  O_38 
REMARK   15  A    between atoms: C_39  and  C_40 
REMARK   16  A    between atoms: C_40  and  C_41 
REMARK   17  A    between atoms: C_41  and  C_42 
REMARK   18  A    between atoms: C_42  and  O_44 
REMARK   19  A    between atoms: C_45  and  C_46 
REMARK   20  A    between atoms: C_46  and  C_47 
REMARK   21  A    between atoms: C_47  and  O_49 
REMARK   22  A    between atoms: C_50  and  C_51 
REMARK   23  A    between atoms: C_51  and  C_52 
REMARK   24  A    between atoms: C_52  and  O_54 
REMARK   25  A    between atoms: C_55  and  C_56 
REMARK   26  A    between atoms: C_56  and  C_57 
REMARK   27  A    between atoms: C_57  and  C_58 
REMARK   28  A    between atoms: C_58  and  O_60 
ROOT
ATOM      1  O   UNK d   0      -7.288 -36.126  50.736  0.00  0.00    -0.650 OA
ATOM      2  C   UNK d   0      -6.532 -35.329  51.334  0.00  0.00     0.139 C 
ENDROOT
BRANCH   2   3
ATOM      3  O   UNK d   0      -6.618 -35.214  52.700  0.00  0.00    -0.776 OA
ATOM      4  H   UNK d   0      -5.823 -34.889  53.254  0.00  0.00     0.167 HD
ENDBRANCH   2   3
BRANCH   2   5
ATOM      5  C   UNK d   0      -5.548 -34.513  50.567  0.00  0.00     0.115 C 
BRANCH   5   6
ATOM      6  C   UNK d   0      -5.972 -33.069  50.553  0.00  0.00     0.052 C 
BRANCH   6   7
ATOM      7  C   UNK d   0      -7.192 -32.830  49.696  0.00  0.00    -0.020 A 
ATOM      8  C   UNK d   0      -8.326 -32.284  50.055  0.00  0.00    -0.011 A 
ATOM      9  C   UNK d   0      -9.203 -32.275  48.896  0.00  0.00     0.067 A 
ATOM     10  C   UNK d   0     -10.502 -31.825  48.613  0.00  0.00     0.062 C 
ATOM     11  N   UNK d   0      -8.524 -32.840  47.876  0.00  0.00    -0.248 NA
ATOM     12  C   UNK d   0     -11.082 -31.651  47.352  0.00  0.00     0.041 A 
ATOM     13  N   UNK d   0     -11.047 -32.420  46.246  0.00  0.00    -0.355 N 
ATOM     14  C   UNK d   0     -11.800 -30.470  47.090  0.00  0.00    -0.022 A 
ATOM     15  C   UNK d   0     -11.717 -31.753  45.288  0.00  0.00     0.042 A 
ATOM     16  H   UNK d   0     -10.575 -33.422  46.151  0.00  0.00     0.166 HD
ATOM     17  C   UNK d   0     -11.983 -32.101  43.948  0.00  0.00     0.062 C 
ATOM     18  C   UNK d   0     -12.204 -30.526  45.779  0.00  0.00    -0.013 A 
ATOM     19  C   UNK d   0     -11.135 -32.632  43.011  0.00  0.00     0.067 A 
ATOM     20  N   UNK d   0      -9.951 -33.071  43.446  0.00  0.00    -0.248 NA
ATOM     21  C   UNK d   0     -11.170 -32.850  41.574  0.00  0.00    -0.011 A 
ATOM     22  C   UNK d   0      -9.209 -33.558  42.398  0.00  0.00     0.066 A 
ATOM     23  C   UNK d   0      -7.965 -34.083  42.716  0.00  0.00     0.062 C 
ATOM     24  C   UNK d   0     -10.039 -33.389  41.221  0.00  0.00    -0.020 A 
ATOM     25  C   UNK d   0      -7.406 -34.261  43.990  0.00  0.00     0.041 A 
ATOM     26  N   UNK d   0      -7.428 -33.490  45.085  0.00  0.00    -0.355 N 
ATOM     27  C   UNK d   0      -6.689 -35.449  44.254  0.00  0.00    -0.022 A 
ATOM     28  C   UNK d   0      -6.752 -34.149  46.039  0.00  0.00     0.042 A 
ATOM     29  H   UNK d   0      -7.893 -32.478  45.175  0.00  0.00     0.166 HD
ATOM     30  C   UNK d   0      -6.472 -33.811  47.373  0.00  0.00     0.062 C 
ATOM     31  C   UNK d   0      -6.273 -35.387  45.548  0.00  0.00    -0.013 A 
ATOM     32  C   UNK d   0      -7.307 -33.195  48.292  0.00  0.00     0.066 A 
BRANCH   8  33
ATOM     33  C   UNK d   0      -8.675 -31.768  51.392  0.00  0.00     0.151 C 
BRANCH  33  34
ATOM     34  C   UNK d   0      -9.173 -32.820  52.297  0.00  0.00     0.143 C 
ATOM     35  O   UNK d   0      -8.540 -33.135  53.315  0.00  0.00    -0.650 OA
BRANCH  34  36
ATOM     36  O   UNK d   0     -10.355 -33.460  52.004  0.00  0.00    -0.776 OA
ATOM     37  H   UNK d   0     -11.186 -33.346  52.599  0.00  0.00     0.167 HD
ENDBRANCH  34  36
ENDBRANCH  33  34
ENDBRANCH   8  33
BRANCH  31  38
ATOM     38  C   UNK d   0      -5.479 -36.443  46.281  0.00  0.00     0.151 C 
BRANCH  38  39
ATOM     39  C   UNK d   0      -6.312 -37.321  47.075  0.00  0.00     0.143 C 
ATOM     40  O   UNK d   0      -7.231 -37.996  46.578  0.00  0.00    -0.650 OA
BRANCH  39  41
ATOM     41  O   UNK d   0      -6.086 -37.426  48.447  0.00  0.00    -0.776 OA
ATOM     42  H   UNK d   0      -6.061 -38.372  48.840  0.00  0.00     0.167 HD
ENDBRANCH  39  41
ENDBRANCH  38  39
ENDBRANCH  31  38
BRANCH  27  43
ATOM     43  C   UNK d   0      -6.392 -36.611  43.340  0.00  0.00     0.052 C 
BRANCH  43  44
ATOM     44  C   UNK d   0      -5.737 -36.204  42.060  0.00  0.00     0.115 C 
BRANCH  44  45
ATOM     45  C   UNK d   0      -4.272 -36.229  42.306  0.00  0.00     0.139 C 
ATOM     46  O   UNK d   0      -3.524 -35.645  41.484  0.00  0.00    -0.650 OA
BRANCH  45  47
ATOM     47  O   UNK d   0      -3.708 -36.856  43.396  0.00  0.00    -0.776 OA
ATOM     48  H   UNK d   0      -4.256 -37.141  44.224  0.00  0.00     0.167 HD
ENDBRANCH  45  47
ENDBRANCH  44  45
ENDBRANCH  43  44
ENDBRANCH  27  43
BRANCH  24  49
ATOM     49  C   UNK d   0      -9.664 -33.811  39.861  0.00  0.00     0.052 C 
BRANCH  49  50
ATOM     50  C   UNK d   0      -8.412 -33.100  39.417  0.00  0.00     0.115 C 
BRANCH  50  51
ATOM     51  C   UNK d   0      -8.460 -31.645  39.351  0.00  0.00     0.139 C 
ATOM     52  O   UNK d   0      -9.384 -31.025  38.775  0.00  0.00    -0.650 OA
BRANCH  51  53
ATOM     53  O   UNK d   0      -7.453 -30.898  39.942  0.00  0.00    -0.776 OA
ATOM     54  H   UNK d   0      -6.671 -30.621  39.374  0.00  0.00     0.167 HD
ENDBRANCH  51  53
ENDBRANCH  50  51
ENDBRANCH  49  50
ENDBRANCH  24  49
BRANCH  21  55
ATOM     55  C   UNK d   0     -12.333 -32.502  40.705  0.00  0.00     0.151 C 
BRANCH  55  56
ATOM     56  C   UNK d   0     -12.638 -31.064  40.742  0.00  0.00     0.143 C 
ATOM     57  O   UNK d   0     -13.754 -30.619  41.074  0.00  0.00    -0.650 OA
BRANCH  56  58
ATOM     58  O   UNK d   0     -11.624 -30.176  40.387  0.00  0.00    -0.776 OA
ATOM     59  H   UNK d   0     -11.713 -29.227  40.794  0.00  0.00     0.167 HD
ENDBRANCH  56  58
ENDBRANCH  55  56
ENDBRANCH  21  55
BRANCH  18  60
ATOM     60  C   UNK d   0     -12.999 -29.456  45.074  0.00  0.00     0.151 C 
BRANCH  60  61
ATOM     61  C   UNK d   0     -12.026 -28.677  44.293  0.00  0.00     0.143 C 
ATOM     62  O   UNK d   0     -10.955 -28.216  44.689  0.00  0.00    -0.650 OA
BRANCH  61  63
ATOM     63  O   UNK d   0     -12.382 -28.449  42.942  0.00  0.00    -0.776 OA
ATOM     64  H   UNK d   0     -11.749 -28.670  42.194  0.00  0.00     0.167 HD
ENDBRANCH  61  63
ENDBRANCH  60  61
ENDBRANCH  18  60
BRANCH  14  65
ATOM     65  C   UNK d   0     -12.212 -29.350  48.002  0.00  0.00     0.052 C 
BRANCH  65  66
ATOM     66  C   UNK d   0     -11.163 -28.307  48.154  0.00  0.00     0.115 C 
BRANCH  66  67
ATOM     67  C   UNK d   0     -11.539 -26.923  48.213  0.00  0.00     0.139 C 
ATOM     68  O   UNK d   0     -11.493 -26.228  47.131  0.00  0.00    -0.650 OA
BRANCH  67  69
ATOM     69  O   UNK d   0     -11.963 -26.200  49.327  0.00  0.00    -0.776 OA
ATOM     70  H   UNK d   0     -11.380 -26.295  50.171  0.00  0.00     0.167 HD
ENDBRANCH  67  69
ENDBRANCH  66  67
ENDBRANCH  65  66
ENDBRANCH  14  65
ENDBRANCH   6   7
ENDBRANCH   5   6
ENDBRANCH   2   5
TORSDOF 28
ENDMDL
MODEL 5
REMARK VINA RESULT:      -6.1      1.821      7.458
REMARK  28 active torsions:
REMARK  status: ('A' for Active; 'I' for Inactive)
REMARK    1  A    between atoms: C_2  and  O_3 
REMARK    2  A    between atoms: C_2  and  C_4 
REMARK    3  A    between atoms: C_4  and  C_5 
REMARK    4  A    between atoms: C_5  and  C_6 
REMARK    5  A    between atoms: C_7  and  C_8 
REMARK    6  A    between atoms: C_8  and  C_9 
REMARK    7  A    between atoms: C_9  and  O_11 
REMARK    8  A    between atoms: C_28  and  C_29 
REMARK    9  A    between atoms: C_29  and  C_30 
REMARK   10  A    between atoms: C_30  and  O_32 
REMARK   11  A    between atoms: C_33  and  C_34 
REMARK   12  A    between atoms: C_34  and  C_35 
REMARK   13  A    between atoms: C_35  and  C_36 
REMARK   14  A    between atoms: C_36  and  O_38 
REMARK   15  A    between atoms: C_39  and  C_40 
REMARK   16  A    between atoms: C_40  and  C_41 
REMARK   17  A    between atoms: C_41  and  C_42 
REMARK   18  A    between atoms: C_42  and  O_44 
REMARK   19  A    between atoms: C_45  and  C_46 
REMARK   20  A    between atoms: C_46  and  C_47 
REMARK   21  A    between atoms: C_47  and  O_49 
REMARK   22  A    between atoms: C_50  and  C_51 
REMARK   23  A    between atoms: C_51  and  C_52 
REMARK   24  A    between atoms: C_52  and  O_54 
REMARK   25  A    between atoms: C_55  and  C_56 
REMARK   26  A    between atoms: C_56  and  C_57 
REMARK   27  A    between atoms: C_57  and  C_58 
REMARK   28  A    between atoms: C_58  and  O_60 
ROOT
ATOM      1  O   UNK d   0     -10.460 -33.076  53.802  0.00  0.00    -0.650 OA
ATOM      2  C   UNK d   0      -9.883 -31.970  53.711  0.00  0.00     0.139 C 
ENDROOT
BRANCH   2   3
ATOM      3  O   UNK d   0      -8.517 -31.909  53.846  0.00  0.00    -0.776 OA
ATOM      4  H   UNK d   0      -7.911 -32.593  53.389  0.00  0.00     0.167 HD
ENDBRANCH   2   3
BRANCH   2   5
ATOM      5  C   UNK d   0     -10.675 -30.732  53.459  0.00  0.00     0.115 C 
BRANCH   5   6
ATOM      6  C   UNK d   0     -10.069 -29.953  52.324  0.00  0.00     0.052 C 
BRANCH   6   7
ATOM      7  C   UNK d   0     -10.370 -30.562  50.975  0.00  0.00    -0.020 A 
ATOM      8  C   UNK d   0     -11.476 -30.464  50.284  0.00  0.00    -0.011 A 
ATOM      9  C   UNK d   0     -11.302 -31.223  49.056  0.00  0.00     0.067 A 
ATOM     10  C   UNK d   0     -12.075 -31.495  47.916  0.00  0.00     0.062 C 
ATOM     11  N   UNK d   0     -10.062 -31.754  49.086  0.00  0.00    -0.248 NA
ATOM     12  C   UNK d   0     -11.631 -32.023  46.699  0.00  0.00     0.041 A 
ATOM     13  N   UNK d   0     -10.776 -33.027  46.427  0.00  0.00    -0.355 N 
ATOM     14  C   UNK d   0     -12.063 -31.426  45.500  0.00  0.00    -0.022 A 
ATOM     15  C   UNK d   0     -10.649 -33.078  45.088  0.00  0.00     0.042 A 
ATOM     16  H   UNK d   0     -10.288 -33.700  47.167  0.00  0.00     0.166 HD
ATOM     17  C   UNK d   0      -9.882 -33.937  44.275  0.00  0.00     0.062 C 
ATOM     18  C   UNK d   0     -11.440 -32.089  44.472  0.00  0.00    -0.013 A 
ATOM     19  C   UNK d   0      -8.581 -34.340  44.433  0.00  0.00     0.067 A 
ATOM     20  N   UNK d   0      -7.997 -34.056  45.600  0.00  0.00    -0.248 NA
ATOM     21  C   UNK d   0      -7.593 -35.025  43.616  0.00  0.00    -0.011 A 
ATOM     22  C   UNK d   0      -6.699 -34.504  45.605  0.00  0.00     0.066 A 
ATOM     23  C   UNK d   0      -5.983 -34.308  46.777  0.00  0.00     0.062 C 
ATOM     24  C   UNK d   0      -6.492 -35.114  44.306  0.00  0.00    -0.020 A 
ATOM     25  C   UNK d   0      -6.451 -33.787  47.994  0.00  0.00     0.041 A 
ATOM     26  N   UNK d   0      -7.289 -32.779  48.264  0.00  0.00    -0.355 N 
ATOM     27  C   UNK d   0      -6.021 -34.389  49.196  0.00  0.00    -0.022 A 
ATOM     28  C   UNK d   0      -7.412 -32.721  49.600  0.00  0.00     0.042 A 
ATOM     29  H   UNK d   0      -7.770 -32.097  47.520  0.00  0.00     0.166 HD
ATOM     30  C   UNK d   0      -8.163 -31.866  50.421  0.00  0.00     0.062 C 
ATOM     31  C   UNK d   0      -6.624 -33.721  50.217  0.00  0.00    -0.013 A 
ATOM     32  C   UNK d   0      -9.449 -31.393  50.214  0.00  0.00     0.066 A 
BRANCH   8  33
ATOM     33  C   UNK d   0     -12.695 -29.727  50.665  0.00  0.00     0.151 C 
BRANCH  33  34
ATOM     34  C   UNK d   0     -12.486 -28.269  50.721  0.00  0.00     0.143 C 
ATOM     35  O   UNK d   0     -12.575 -27.655  51.793  0.00  0.00    -0.650 OA
BRANCH  34  36
ATOM     36  O   UNK d   0     -12.191 -27.584  49.565  0.00  0.00    -0.776 OA
ATOM     37  H   UNK d   0     -11.877 -28.076  48.718  0.00  0.00     0.167 HD
ENDBRANCH  34  36
ENDBRANCH  33  34
ENDBRANCH   8  33
BRANCH  31  38
ATOM     38  C   UNK d   0      -6.475 -34.022  51.690  0.00  0.00     0.151 C 
BRANCH  38  39
ATOM     39  C   UNK d   0      -7.372 -35.062  52.145  0.00  0.00     0.143 C 
ATOM     40  O   UNK d   0      -8.604 -34.992  51.993  0.00  0.00    -0.650 OA
BRANCH  39  41
ATOM     41  O   UNK d   0      -6.850 -36.190  52.778  0.00  0.00    -0.776 OA
ATOM     42  H   UNK d   0      -7.132 -37.101  52.403  0.00  0.00     0.167 HD
ENDBRANCH  39  41
ENDBRANCH  38  39
ENDBRANCH  31  38
BRANCH  27  43
ATOM     43  C   UNK d   0      -5.078 -35.548  49.403  0.00  0.00     0.052 C 
BRANCH  43  44
ATOM     44  C   UNK d   0      -5.772 -36.869  49.473  0.00  0.00     0.115 C 
BRANCH  44  45
ATOM     45  C   UNK d   0      -4.738 -37.905  49.213  0.00  0.00     0.139 C 
ATOM     46  O   UNK d   0      -4.512 -38.231  48.021  0.00  0.00    -0.650 OA
BRANCH  45  47
ATOM     47  O   UNK d   0      -4.020 -38.514  50.220  0.00  0.00    -0.776 OA
ATOM     48  H   UNK d   0      -3.650 -39.475  50.143  0.00  0.00     0.167 HD
ENDBRANCH  45  47
ENDBRANCH  44  45
ENDBRANCH  43  44
ENDBRANCH  27  43
BRANCH  24  49
ATOM     49  C   UNK d   0      -5.247 -35.770  43.874  0.00  0.00     0.052 C 
BRANCH  49  50
ATOM     50  C   UNK d   0      -4.963 -36.976  44.732  0.00  0.00     0.115 C 
BRANCH  50  51
ATOM     51  C   UNK d   0      -5.279 -38.282  44.169  0.00  0.00     0.139 C 
ATOM     52  O   UNK d   0      -5.324 -39.325  44.864  0.00  0.00    -0.650 OA
BRANCH  51  53
ATOM     53  O   UNK d   0      -5.542 -38.399  42.813  0.00  0.00    -0.776 OA
ATOM     54  H   UNK d   0      -5.670 -39.320  42.432  0.00  0.00     0.167 HD
ENDBRANCH  51  53
ENDBRANCH  50  51
ENDBRANCH  49  50
ENDBRANCH  24  49
BRANCH  21  55
ATOM     55  C   UNK d   0      -7.853 -35.522  42.233  0.00  0.00     0.151 C 
BRANCH  55  56
ATOM     56  C   UNK d   0      -8.820 -36.630  42.218  0.00  0.00     0.143 C 
ATOM     57  O   UNK d   0      -9.937 -36.544  41.670  0.00  0.00    -0.650 OA
BRANCH  56  58
ATOM     58  O   UNK d   0      -8.455 -37.819  42.848  0.00  0.00    -0.776 OA
ATOM     59  H   UNK d   0      -9.209 -38.273  43.393  0.00  0.00     0.167 HD
ENDBRANCH  56  58
ENDBRANCH  55  56
ENDBRANCH  21  55
BRANCH  18  60
ATOM     60  C   UNK d   0     -11.611 -31.769  43.008  0.00  0.00     0.151 C 
BRANCH  60  61
ATOM     61  C   UNK d   0     -12.709 -32.624  42.533  0.00  0.00     0.143 C 
ATOM     62  O   UNK d   0     -13.917 -32.399  42.623  0.00  0.00    -0.650 OA
BRANCH  61  63
ATOM     63  O   UNK d   0     -12.308 -33.829  41.909  0.00  0.00    -0.776 OA
ATOM     64  H   UNK d   0     -11.371 -34.177  42.007  0.00  0.00     0.167 HD
ENDBRANCH  61  63
ENDBRANCH  60  61
ENDBRANCH  18  60
BRANCH  14  65
ATOM     65  C   UNK d   0     -13.084 -30.353  45.251  0.00  0.00     0.052 C 
BRANCH  65  66
ATOM     66  C   UNK d   0     -12.480 -29.065  44.816  0.00  0.00     0.115 C 
BRANCH  66  67
ATOM     67  C   UNK d   0     -11.593 -28.361  45.699  0.00  0.00     0.139 C 
ATOM     68  O   UNK d   0     -11.951 -28.191  46.922  0.00  0.00    -0.650 OA
BRANCH  67  69
ATOM     69  O   UNK d   0     -10.346 -27.815  45.397  0.00  0.00    -0.776 OA
ATOM     70  H   UNK d   0      -9.535 -28.428  45.567  0.00  0.00     0.167 HD
ENDBRANCH  67  69
ENDBRANCH  66  67
ENDBRANCH  65  66
ENDBRANCH  14  65
ENDBRANCH   6   7
ENDBRANCH   5   6
ENDBRANCH   2   5
TORSDOF 28
ENDMDL
MODEL 6
REMARK VINA RESULT:      -6.1      2.092      7.941
REMARK  28 active torsions:
REMARK  status: ('A' for Active; 'I' for Inactive)
REMARK    1  A    between atoms: C_2  and  O_3 
REMARK    2  A    between atoms: C_2  and  C_4 
REMARK    3  A    between atoms: C_4  and  C_5 
REMARK    4  A    between atoms: C_5  and  C_6 
REMARK    5  A    between atoms: C_7  and  C_8 
REMARK    6  A    between atoms: C_8  and  C_9 
REMARK    7  A    between atoms: C_9  and  O_11 
REMARK    8  A    between atoms: C_28  and  C_29 
REMARK    9  A    between atoms: C_29  and  C_30 
REMARK   10  A    between atoms: C_30  and  O_32 
REMARK   11  A    between atoms: C_33  and  C_34 
REMARK   12  A    between atoms: C_34  and  C_35 
REMARK   13  A    between atoms: C_35  and  C_36 
REMARK   14  A    between atoms: C_36  and  O_38 
REMARK   15  A    between atoms: C_39  and  C_40 
REMARK   16  A    between atoms: C_40  and  C_41 
REMARK   17  A    between atoms: C_41  and  C_42 
REMARK   18  A    between atoms: C_42  and  O_44 
REMARK   19  A    between atoms: C_45  and  C_46 
REMARK   20  A    between atoms: C_46  and  C_47 
REMARK   21  A    between atoms: C_47  and  O_49 
REMARK   22  A    between atoms: C_50  and  C_51 
REMARK   23  A    between atoms: C_51  and  C_52 
REMARK   24  A    between atoms: C_52  and  O_54 
REMARK   25  A    between atoms: C_55  and  C_56 
REMARK   26  A    between atoms: C_56  and  C_57 
REMARK   27  A    between atoms: C_57  and  C_58 
REMARK   28  A    between atoms: C_58  and  O_60 
ROOT
ATOM      1  O   UNK d   0      -9.591 -32.650  51.538  0.00  0.00    -0.650 OA
ATOM      2  C   UNK d   0      -9.943 -31.515  51.147  0.00  0.00     0.139 C 
ENDROOT
BRANCH   2   3
ATOM      3  O   UNK d   0      -9.244 -30.410  51.569  0.00  0.00    -0.776 OA
ATOM      4  H   UNK d   0      -8.279 -30.490  51.898  0.00  0.00     0.167 HD
ENDBRANCH   2   3
BRANCH   2   5
ATOM      5  C   UNK d   0     -11.111 -31.367  50.233  0.00  0.00     0.115 C 
BRANCH   5   6
ATOM      6  C   UNK d   0     -10.747 -30.492  49.064  0.00  0.00     0.052 C 
BRANCH   6   7
ATOM      7  C   UNK d   0     -10.661 -31.260  47.767  0.00  0.00    -0.020 A 
ATOM      8  C   UNK d   0     -11.535 -31.284  46.794  0.00  0.00    -0.011 A 
ATOM      9  C   UNK d   0     -11.026 -32.168  45.759  0.00  0.00     0.067 A 
ATOM     10  C   UNK d   0     -11.453 -32.596  44.493  0.00  0.00     0.062 C 
ATOM     11  N   UNK d   0      -9.838 -32.643  46.188  0.00  0.00    -0.248 NA
ATOM     12  C   UNK d   0     -10.689 -33.240  43.514  0.00  0.00     0.041 A 
ATOM     13  N   UNK d   0      -9.785 -34.234  43.606  0.00  0.00    -0.355 N 
ATOM     14  C   UNK d   0     -10.778 -32.799  42.181  0.00  0.00    -0.022 A 
ATOM     15  C   UNK d   0      -9.294 -34.430  42.368  0.00  0.00     0.042 A 
ATOM     16  H   UNK d   0      -9.515 -34.800  44.525  0.00  0.00     0.166 HD
ATOM     17  C   UNK d   0      -8.328 -35.345  41.903  0.00  0.00     0.062 C 
ATOM     18  C   UNK d   0      -9.892 -33.548  41.448  0.00  0.00    -0.013 A 
ATOM     19  C   UNK d   0      -7.117 -35.676  42.455  0.00  0.00     0.067 A 
ATOM     20  N   UNK d   0      -6.879 -35.240  43.695  0.00  0.00    -0.248 NA
ATOM     21  C   UNK d   0      -5.938 -36.409  42.026  0.00  0.00    -0.011 A 
ATOM     22  C   UNK d   0      -5.629 -35.634  44.107  0.00  0.00     0.066 A 
ATOM     23  C   UNK d   0      -5.265 -35.279  45.397  0.00  0.00     0.062 C 
ATOM     24  C   UNK d   0      -5.069 -36.377  42.995  0.00  0.00    -0.020 A 
ATOM     25  C   UNK d   0      -6.052 -34.643  46.369  0.00  0.00     0.041 A 
ATOM     26  N   UNK d   0      -6.939 -33.645  46.280  0.00  0.00    -0.355 N 
ATOM     27  C   UNK d   0      -5.965 -35.090  47.706  0.00  0.00    -0.022 A 
ATOM     28  C   UNK d   0      -7.424 -33.442  47.515  0.00  0.00     0.042 A 
ATOM     29  H   UNK d   0      -7.202 -33.071  45.358  0.00  0.00     0.166 HD
ATOM     30  C   UNK d   0      -8.378 -32.530  47.994  0.00  0.00     0.062 C 
ATOM     31  C   UNK d   0      -6.830 -34.336  48.438  0.00  0.00    -0.013 A 
ATOM     32  C   UNK d   0      -9.561 -32.135  47.390  0.00  0.00     0.066 A 
BRANCH   8  33
ATOM     33  C   UNK d   0     -12.817 -30.557  46.738  0.00  0.00     0.151 C 
BRANCH  33  34
ATOM     34  C   UNK d   0     -12.800 -29.442  45.774  0.00  0.00     0.143 C 
ATOM     35  O   UNK d   0     -13.792 -29.190  45.075  0.00  0.00    -0.650 OA
BRANCH  34  36
ATOM     36  O   UNK d   0     -11.665 -28.675  45.649  0.00  0.00    -0.776 OA
ATOM     37  H   UNK d   0     -11.003 -28.568  46.430  0.00  0.00     0.167 HD
ENDBRANCH  34  36
ENDBRANCH  33  34
ENDBRANCH   8  33
BRANCH  31  38
ATOM     38  C   UNK d   0      -7.089 -34.463  49.921  0.00  0.00     0.151 C 
BRANCH  38  39
ATOM     39  C   UNK d   0      -6.347 -33.498  50.705  0.00  0.00     0.143 C 
ATOM     40  O   UNK d   0      -5.348 -32.907  50.260  0.00  0.00    -0.650 OA
BRANCH  39  41
ATOM     41  O   UNK d   0      -6.757 -33.212  52.007  0.00  0.00    -0.776 OA
ATOM     42  H   UNK d   0      -6.225 -33.650  52.765  0.00  0.00     0.167 HD
ENDBRANCH  39  41
ENDBRANCH  38  39
ENDBRANCH  31  38
BRANCH  27  43
ATOM     43  C   UNK d   0      -5.107 -36.180  48.298  0.00  0.00     0.052 C 
BRANCH  43  44
ATOM     44  C   UNK d   0      -5.725 -37.537  48.200  0.00  0.00     0.115 C 
BRANCH  44  45
ATOM     45  C   UNK d   0      -4.736 -38.496  48.758  0.00  0.00     0.139 C 
ATOM     46  O   UNK d   0      -4.548 -39.575  48.144  0.00  0.00    -0.650 OA
BRANCH  45  47
ATOM     47  O   UNK d   0      -4.019 -38.245  49.908  0.00  0.00    -0.776 OA
ATOM     48  H   UNK d   0      -3.852 -38.963  50.631  0.00  0.00     0.167 HD
ENDBRANCH  45  47
ENDBRANCH  44  45
ENDBRANCH  43  44
ENDBRANCH  27  43
BRANCH  24  49
ATOM     49  C   UNK d   0      -3.748 -37.028  42.998  0.00  0.00     0.052 C 
BRANCH  49  50
ATOM     50  C   UNK d   0      -2.664 -36.017  42.725  0.00  0.00     0.115 C 
BRANCH  50  51
ATOM     51  C   UNK d   0      -1.569 -36.434  41.860  0.00  0.00     0.139 C 
ATOM     52  O   UNK d   0      -0.731 -37.302  42.201  0.00  0.00    -0.650 OA
BRANCH  51  53
ATOM     53  O   UNK d   0      -1.428 -35.860  40.606  0.00  0.00    -0.776 OA
ATOM     54  H   UNK d   0      -0.567 -36.008  40.109  0.00  0.00     0.167 HD
ENDBRANCH  51  53
ENDBRANCH  50  51
ENDBRANCH  49  50
ENDBRANCH  24  49
BRANCH  21  55
ATOM     55  C   UNK d   0      -5.804 -37.068  40.693  0.00  0.00     0.151 C 
BRANCH  55  56
ATOM     56  C   UNK d   0      -4.920 -36.314  39.791  0.00  0.00     0.143 C 
ATOM     57  O   UNK d   0      -3.890 -36.806  39.290  0.00  0.00    -0.650 OA
BRANCH  56  58
ATOM     58  O   UNK d   0      -5.265 -34.997  39.495  0.00  0.00    -0.776 OA
ATOM     59  H   UNK d   0      -4.681 -34.545  38.769  0.00  0.00     0.167 HD
ENDBRANCH  56  58
ENDBRANCH  55  56
ENDBRANCH  21  55
BRANCH  18  60
ATOM     60  C   UNK d   0      -9.656 -33.401  39.965  0.00  0.00     0.151 C 
BRANCH  60  61
ATOM     61  C   UNK d   0      -8.485 -32.522  39.827  0.00  0.00     0.143 C 
ATOM     62  O   UNK d   0      -8.454 -31.299  39.967  0.00  0.00    -0.650 OA
BRANCH  61  63
ATOM     63  O   UNK d   0      -7.274 -33.179  39.499  0.00  0.00    -0.776 OA
ATOM     64  H   UNK d   0      -6.964 -33.248  38.546  0.00  0.00     0.167 HD
ENDBRANCH  61  63
ENDBRANCH  60  61
ENDBRANCH  18  60
BRANCH  14  65
ATOM     65  C   UNK d   0     -11.699 -31.801  41.538  0.00  0.00     0.052 C 
BRANCH  65  66
ATOM     66  C   UNK d   0     -11.260 -30.393  41.735  0.00  0.00     0.115 C 
BRANCH  66  67
ATOM     67  C   UNK d   0     -12.233 -29.379  42.028  0.00  0.00     0.139 C 
ATOM     68  O   UNK d   0     -13.451 -29.574  41.666  0.00  0.00    -0.650 OA
BRANCH  67  69
ATOM     69  O   UNK d   0     -12.028 -28.162  42.677  0.00  0.00    -0.776 OA
ATOM     70  H   UNK d   0     -11.084 -28.013  43.061  0.00  0.00     0.167 HD
ENDBRANCH  67  69
ENDBRANCH  66  67
ENDBRANCH  65  66
ENDBRANCH  14  65
ENDBRANCH   6   7
ENDBRANCH   5   6
ENDBRANCH   2   5
TORSDOF 28
ENDMDL
MODEL 7
REMARK VINA RESULT:      -6.1      1.570      3.981
REMARK  28 active torsions:
REMARK  status: ('A' for Active; 'I' for Inactive)
REMARK    1  A    between atoms: C_2  and  O_3 
REMARK    2  A    between atoms: C_2  and  C_4 
REMARK    3  A    between atoms: C_4  and  C_5 
REMARK    4  A    between atoms: C_5  and  C_6 
REMARK    5  A    between atoms: C_7  and  C_8 
REMARK    6  A    between atoms: C_8  and  C_9 
REMARK    7  A    between atoms: C_9  and  O_11 
REMARK    8  A    between atoms: C_28  and  C_29 
REMARK    9  A    between atoms: C_29  and  C_30 
REMARK   10  A    between atoms: C_30  and  O_32 
REMARK   11  A    between atoms: C_33  and  C_34 
REMARK   12  A    between atoms: C_34  and  C_35 
REMARK   13  A    between atoms: C_35  and  C_36 
REMARK   14  A    between atoms: C_36  and  O_38 
REMARK   15  A    between atoms: C_39  and  C_40 
REMARK   16  A    between atoms: C_40  and  C_41 
REMARK   17  A    between atoms: C_41  and  C_42 
REMARK   18  A    between atoms: C_42  and  O_44 
REMARK   19  A    between atoms: C_45  and  C_46 
REMARK   20  A    between atoms: C_46  and  C_47 
REMARK   21  A    between atoms: C_47  and  O_49 
REMARK   22  A    between atoms: C_50  and  C_51 
REMARK   23  A    between atoms: C_51  and  C_52 
REMARK   24  A    between atoms: C_52  and  O_54 
REMARK   25  A    between atoms: C_55  and  C_56 
REMARK   26  A    between atoms: C_56  and  C_57 
REMARK   27  A    between atoms: C_57  and  C_58 
REMARK   28  A    between atoms: C_58  and  O_60 
ROOT
ATOM      1  O   UNK d   0      -9.587 -34.118  53.952  0.00  0.00    -0.650 OA
ATOM      2  C   UNK d   0      -9.200 -33.050  53.428  0.00  0.00     0.139 C 
ENDROOT
BRANCH   2   3
ATOM      3  O   UNK d   0      -8.406 -32.193  54.152  0.00  0.00    -0.776 OA
ATOM      4  H   UNK d   0      -8.495 -31.180  54.051  0.00  0.00     0.167 HD
ENDBRANCH   2   3
BRANCH   2   5
ATOM      5  C   UNK d   0      -9.598 -32.715  52.031  0.00  0.00     0.115 C 
BRANCH   5   6
ATOM      6  C   UNK d   0      -8.571 -31.813  51.403  0.00  0.00     0.052 C 
BRANCH   6   7
ATOM      7  C   UNK d   0      -8.088 -32.325  50.067  0.00  0.00    -0.020 A 
ATOM      8  C   UNK d   0      -6.971 -32.958  49.812  0.00  0.00    -0.011 A 
ATOM      9  C   UNK d   0      -6.937 -33.242  48.387  0.00  0.00     0.067 A 
ATOM     10  C   UNK d   0      -6.059 -33.891  47.504  0.00  0.00     0.062 C 
ATOM     11  N   UNK d   0      -8.070 -32.742  47.851  0.00  0.00    -0.248 NA
ATOM     12  C   UNK d   0      -6.329 -34.313  46.198  0.00  0.00     0.041 A 
ATOM     13  N   UNK d   0      -6.985 -33.709  45.189  0.00  0.00    -0.355 N 
ATOM     14  C   UNK d   0      -5.928 -35.602  45.803  0.00  0.00    -0.022 A 
ATOM     15  C   UNK d   0      -7.016 -34.584  44.166  0.00  0.00     0.042 A 
ATOM     16  H   UNK d   0      -7.399 -32.677  45.193  0.00  0.00     0.166 HD
ATOM     17  C   UNK d   0      -7.575 -34.464  42.878  0.00  0.00     0.062 C 
ATOM     18  C   UNK d   0      -6.364 -35.783  44.514  0.00  0.00    -0.013 A 
ATOM     19  C   UNK d   0      -8.798 -33.963  42.512  0.00  0.00     0.067 A 
ATOM     20  N   UNK d   0      -9.494 -33.319  43.452  0.00  0.00    -0.248 NA
ATOM     21  C   UNK d   0      -9.603 -33.955  41.302  0.00  0.00    -0.011 A 
ATOM     22  C   UNK d   0     -10.697 -32.891  42.945  0.00  0.00     0.066 A 
ATOM     23  C   UNK d   0     -11.508 -32.170  43.808  0.00  0.00     0.062 C 
ATOM     24  C   UNK d   0     -10.715 -33.329  41.563  0.00  0.00    -0.020 A 
ATOM     25  C   UNK d   0     -11.213 -31.745  45.113  0.00  0.00     0.041 A 
ATOM     26  N   UNK d   0     -10.574 -32.352  46.121  0.00  0.00    -0.355 N 
ATOM     27  C   UNK d   0     -11.612 -30.450  45.507  0.00  0.00    -0.022 A 
ATOM     28  C   UNK d   0     -10.549 -31.484  47.145  0.00  0.00     0.042 A 
ATOM     29  H   UNK d   0     -10.167 -33.393  46.119  0.00  0.00     0.166 HD
ATOM     30  C   UNK d   0     -10.005 -31.594  48.435  0.00  0.00     0.062 C 
ATOM     31  C   UNK d   0     -11.195 -30.276  46.791  0.00  0.00    -0.013 A 
ATOM     32  C   UNK d   0      -8.806 -32.177  48.810  0.00  0.00     0.066 A 
BRANCH   8  33
ATOM     33  C   UNK d   0      -5.920 -33.322  50.779  0.00  0.00     0.151 C 
BRANCH  33  34
ATOM     34  C   UNK d   0      -6.212 -34.578  51.493  0.00  0.00     0.143 C 
ATOM     35  O   UNK d   0      -6.127 -35.672  50.918  0.00  0.00    -0.650 OA
BRANCH  34  36
ATOM     36  O   UNK d   0      -6.585 -34.531  52.816  0.00  0.00    -0.776 OA
ATOM     37  H   UNK d   0      -6.158 -33.860  53.469  0.00  0.00     0.167 HD
ENDBRANCH  34  36
ENDBRANCH  33  34
ENDBRANCH   8  33
BRANCH  31  38
ATOM     38  C   UNK d   0     -11.386 -29.033  47.630  0.00  0.00     0.151 C 
BRANCH  38  39
ATOM     39  C   UNK d   0     -12.516 -29.131  48.529  0.00  0.00     0.143 C 
ATOM     40  O   UNK d   0     -13.438 -29.947  48.353  0.00  0.00    -0.650 OA
BRANCH  39  41
ATOM     41  O   UNK d   0     -12.586 -28.288  49.638  0.00  0.00    -0.776 OA
ATOM     42  H   UNK d   0     -12.144 -27.368  49.546  0.00  0.00     0.167 HD
ENDBRANCH  39  41
ENDBRANCH  38  39
ENDBRANCH  31  38
BRANCH  27  43
ATOM     43  C   UNK d   0     -12.359 -29.398  44.726  0.00  0.00     0.052 C 
BRANCH  43  44
ATOM     44  C   UNK d   0     -13.843 -29.572  44.770  0.00  0.00     0.115 C 
BRANCH  44  45
ATOM     45  C   UNK d   0     -14.365 -29.092  43.464  0.00  0.00     0.139 C 
ATOM     46  O   UNK d   0     -15.450 -29.568  43.049  0.00  0.00    -0.650 OA
BRANCH  45  47
ATOM     47  O   UNK d   0     -13.713 -28.148  42.700  0.00  0.00    -0.776 OA
ATOM     48  H   UNK d   0     -12.686 -28.033  42.707  0.00  0.00     0.167 HD
ENDBRANCH  45  47
ENDBRANCH  44  45
ENDBRANCH  43  44
ENDBRANCH  27  43
BRANCH  24  49
ATOM     49  C   UNK d   0     -11.803 -33.057  40.608  0.00  0.00     0.052 C 
BRANCH  49  50
ATOM     50  C   UNK d   0     -11.614 -31.704  39.970  0.00  0.00     0.115 C 
BRANCH  50  51
ATOM     51  C   UNK d   0     -12.273 -30.571  40.605  0.00  0.00     0.139 C 
ATOM     52  O   UNK d   0     -11.639 -29.656  41.180  0.00  0.00    -0.650 OA
BRANCH  51  53
ATOM     53  O   UNK d   0     -13.657 -30.484  40.586  0.00  0.00    -0.776 OA
ATOM     54  H   UNK d   0     -14.074 -29.593  40.382  0.00  0.00     0.167 HD
ENDBRANCH  51  53
ENDBRANCH  50  51
ENDBRANCH  49  50
ENDBRANCH  24  49
BRANCH  21  55
ATOM     55  C   UNK d   0      -9.176 -34.568  40.010  0.00  0.00     0.151 C 
BRANCH  55  56
ATOM     56  C   UNK d   0      -8.059 -33.835  39.394  0.00  0.00     0.143 C 
ATOM     57  O   UNK d   0      -6.940 -34.349  39.199  0.00  0.00    -0.650 OA
BRANCH  56  58
ATOM     58  O   UNK d   0      -8.281 -32.511  39.018  0.00  0.00    -0.776 OA
ATOM     59  H   UNK d   0      -8.123 -32.310  38.014  0.00  0.00     0.167 HD
ENDBRANCH  56  58
ENDBRANCH  55  56
ENDBRANCH  21  55
BRANCH  18  60
ATOM     60  C   UNK d   0      -6.156 -37.035  43.699  0.00  0.00     0.151 C 
BRANCH  60  61
ATOM     61  C   UNK d   0      -5.081 -36.722  42.745  0.00  0.00     0.143 C 
ATOM     62  O   UNK d   0      -5.186 -36.592  41.525  0.00  0.00    -0.650 OA
BRANCH  61  63
ATOM     63  O   UNK d   0      -3.797 -36.557  43.318  0.00  0.00    -0.776 OA
ATOM     64  H   UNK d   0      -3.559 -36.991  44.192  0.00  0.00     0.167 HD
ENDBRANCH  61  63
ENDBRANCH  60  61
ENDBRANCH  18  60
BRANCH  14  65
ATOM     65  C   UNK d   0      -5.087 -36.627  46.509  0.00  0.00     0.052 C 
BRANCH  65  66
ATOM     66  C   UNK d   0      -5.893 -37.599  47.296  0.00  0.00     0.115 C 
BRANCH  66  67
ATOM     67  C   UNK d   0      -5.231 -38.617  48.062  0.00  0.00     0.139 C 
ATOM     68  O   UNK d   0      -4.967 -38.380  49.299  0.00  0.00    -0.650 OA
BRANCH  67  69
ATOM     69  O   UNK d   0      -4.818 -39.877  47.631  0.00  0.00    -0.776 OA
ATOM     70  H   UNK d   0      -5.329 -40.264  46.825  0.00  0.00     0.167 HD
ENDBRANCH  67  69
ENDBRANCH  66  67
ENDBRANCH  65  66
ENDBRANCH  14  65
ENDBRANCH   6   7
ENDBRANCH   5   6
ENDBRANCH   2   5
TORSDOF 28
ENDMDL
MODEL 8
REMARK VINA RESULT:      -6.0      2.233      7.943
REMARK  28 active torsions:
REMARK  status: ('A' for Active; 'I' for Inactive)
REMARK    1  A    between atoms: C_2  and  O_3 
REMARK    2  A    between atoms: C_2  and  C_4 
REMARK    3  A    between atoms: C_4  and  C_5 
REMARK    4  A    between atoms: C_5  and  C_6 
REMARK    5  A    between atoms: C_7  and  C_8 
REMARK    6  A    between atoms: C_8  and  C_9 
REMARK    7  A    between atoms: C_9  and  O_11 
REMARK    8  A    between atoms: C_28  and  C_29 
REMARK    9  A    between atoms: C_29  and  C_30 
REMARK   10  A    between atoms: C_30  and  O_32 
REMARK   11  A    between atoms: C_33  and  C_34 
REMARK   12  A    between atoms: C_34  and  C_35 
REMARK   13  A    between atoms: C_35  and  C_36 
REMARK   14  A    between atoms: C_36  and  O_38 
REMARK   15  A    between atoms: C_39  and  C_40 
REMARK   16  A    between atoms: C_40  and  C_41 
REMARK   17  A    between atoms: C_41  and  C_42 
REMARK   18  A    between atoms: C_42  and  O_44 
REMARK   19  A    between atoms: C_45  and  C_46 
REMARK   20  A    between atoms: C_46  and  C_47 
REMARK   21  A    between atoms: C_47  and  O_49 
REMARK   22  A    between atoms: C_50  and  C_51 
REMARK   23  A    between atoms: C_51  and  C_52 
REMARK   24  A    between atoms: C_52  and  O_54 
REMARK   25  A    between atoms: C_55  and  C_56 
REMARK   26  A    between atoms: C_56  and  C_57 
REMARK   27  A    between atoms: C_57  and  C_58 
REMARK   28  A    between atoms: C_58  and  O_60 
ROOT
ATOM      1  O   UNK d   0     -10.401 -28.317  50.422  0.00  0.00    -0.650 OA
ATOM      2  C   UNK d   0     -10.784 -29.285  49.730  0.00  0.00     0.139 C 
ENDROOT
BRANCH   2   3
ATOM      3  O   UNK d   0     -10.777 -30.547  50.274  0.00  0.00    -0.776 OA
ATOM      4  H   UNK d   0     -11.346 -31.297  49.876  0.00  0.00     0.167 HD
ENDBRANCH   2   3
BRANCH   2   5
ATOM      5  C   UNK d   0     -11.242 -29.068  48.328  0.00  0.00     0.115 C 
BRANCH   5   6
ATOM      6  C   UNK d   0     -12.253 -30.115  47.946  0.00  0.00     0.052 C 
BRANCH   6   7
ATOM      7  C   UNK d   0     -11.912 -30.806  46.647  0.00  0.00    -0.020 A 
ATOM      8  C   UNK d   0     -12.529 -30.695  45.499  0.00  0.00    -0.011 A 
ATOM      9  C   UNK d   0     -11.848 -31.553  44.543  0.00  0.00     0.067 A 
ATOM     10  C   UNK d   0     -11.989 -31.864  43.182  0.00  0.00     0.062 C 
ATOM     11  N   UNK d   0     -10.832 -32.153  45.197  0.00  0.00    -0.248 NA
ATOM     12  C   UNK d   0     -11.059 -32.508  42.359  0.00  0.00     0.041 A 
ATOM     13  N   UNK d   0     -10.273 -33.579  42.580  0.00  0.00    -0.355 N 
ATOM     14  C   UNK d   0     -10.798 -31.979  41.082  0.00  0.00    -0.022 A 
ATOM     15  C   UNK d   0      -9.515 -33.739  41.478  0.00  0.00     0.042 A 
ATOM     16  H   UNK d   0     -10.268 -34.222  43.488  0.00  0.00     0.166 HD
ATOM     17  C   UNK d   0      -8.530 -34.701  41.179  0.00  0.00     0.062 C 
ATOM     18  C   UNK d   0      -9.815 -32.754  40.518  0.00  0.00    -0.013 A 
ATOM     19  C   UNK d   0      -7.511 -35.167  41.970  0.00  0.00     0.067 A 
ATOM     20  N   UNK d   0      -7.546 -34.831  43.262  0.00  0.00    -0.248 NA
ATOM     21  C   UNK d   0      -6.316 -35.969  41.769  0.00  0.00    -0.011 A 
ATOM     22  C   UNK d   0      -6.460 -35.354  43.920  0.00  0.00     0.066 A 
ATOM     23  C   UNK d   0      -6.391 -35.112  45.284  0.00  0.00     0.062 C 
ATOM     24  C   UNK d   0      -5.703 -36.071  42.913  0.00  0.00    -0.020 A 
ATOM     25  C   UNK d   0      -7.343 -34.474  46.094  0.00  0.00     0.041 A 
ATOM     26  N   UNK d   0      -8.113 -33.400  45.881  0.00  0.00    -0.355 N 
ATOM     27  C   UNK d   0      -7.607 -35.008  47.374  0.00  0.00    -0.022 A 
ATOM     28  C   UNK d   0      -8.864 -33.234  46.981  0.00  0.00     0.042 A 
ATOM     29  H   UNK d   0      -8.109 -32.749  44.972  0.00  0.00     0.166 HD
ATOM     30  C   UNK d   0      -9.841 -32.276  47.296  0.00  0.00     0.062 C 
ATOM     31  C   UNK d   0      -8.569 -34.230  47.942  0.00  0.00    -0.013 A 
ATOM     32  C   UNK d   0     -10.816 -31.745  46.467  0.00  0.00     0.066 A 
BRANCH   8  33
ATOM     33  C   UNK d   0     -13.709 -29.860  45.204  0.00  0.00     0.151 C 
BRANCH  33  34
ATOM     34  C   UNK d   0     -13.434 -28.818  44.199  0.00  0.00     0.143 C 
ATOM     35  O   UNK d   0     -14.009 -28.825  43.101  0.00  0.00    -0.650 OA
BRANCH  34  36
ATOM     36  O   UNK d   0     -12.524 -27.826  44.486  0.00  0.00    -0.776 OA
ATOM     37  H   UNK d   0     -12.427 -27.449  45.439  0.00  0.00     0.167 HD
ENDBRANCH  34  36
ENDBRANCH  33  34
ENDBRANCH   8  33
BRANCH  31  38
ATOM     38  C   UNK d   0      -9.182 -34.427  49.309  0.00  0.00     0.151 C 
BRANCH  38  39
ATOM     39  C   UNK d   0      -8.794 -33.399  50.252  0.00  0.00     0.143 C 
ATOM     40  O   UNK d   0      -7.690 -32.830  50.197  0.00  0.00    -0.650 OA
BRANCH  39  41
ATOM     41  O   UNK d   0      -9.680 -33.024  51.261  0.00  0.00    -0.776 OA
ATOM     42  H   UNK d   0      -9.978 -33.759  51.910  0.00  0.00     0.167 HD
ENDBRANCH  39  41
ENDBRANCH  38  39
ENDBRANCH  31  38
BRANCH  27  43
ATOM     43  C   UNK d   0      -6.991 -36.202  48.060  0.00  0.00     0.052 C 
BRANCH  43  44
ATOM     44  C   UNK d   0      -5.545 -36.014  48.387  0.00  0.00     0.115 C 
BRANCH  44  45
ATOM     45  C   UNK d   0      -5.493 -35.257  49.664  0.00  0.00     0.139 C 
ATOM     46  O   UNK d   0      -5.834 -35.849  50.718  0.00  0.00    -0.650 OA
BRANCH  45  47
ATOM     47  O   UNK d   0      -5.083 -33.943  49.738  0.00  0.00    -0.776 OA
ATOM     48  H   UNK d   0      -4.503 -33.580  50.511  0.00  0.00     0.167 HD
ENDBRANCH  45  47
ENDBRANCH  44  45
ENDBRANCH  43  44
ENDBRANCH  27  43
BRANCH  24  49
ATOM     49  C   UNK d   0      -4.468 -36.831  43.172  0.00  0.00     0.052 C 
BRANCH  49  50
ATOM     50  C   UNK d   0      -3.262 -35.942  43.010  0.00  0.00     0.115 C 
BRANCH  50  51
ATOM     51  C   UNK d   0      -2.165 -36.451  42.199  0.00  0.00     0.139 C 
ATOM     52  O   UNK d   0      -1.025 -35.928  42.197  0.00  0.00    -0.650 OA
BRANCH  51  53
ATOM     53  O   UNK d   0      -2.367 -37.557  41.387  0.00  0.00    -0.776 OA
ATOM     54  H   UNK d   0      -1.628 -37.830  40.763  0.00  0.00     0.167 HD
ENDBRANCH  51  53
ENDBRANCH  50  51
ENDBRANCH  49  50
ENDBRANCH  24  49
BRANCH  21  55
ATOM     55  C   UNK d   0      -5.913 -36.553  40.456  0.00  0.00     0.151 C 
BRANCH  55  56
ATOM     56  C   UNK d   0      -5.140 -35.602  39.643  0.00  0.00     0.143 C 
ATOM     57  O   UNK d   0      -3.900 -35.667  39.526  0.00  0.00    -0.650 OA
BRANCH  56  58
ATOM     58  O   UNK d   0      -5.839 -34.593  38.983  0.00  0.00    -0.776 OA
ATOM     59  H   UNK d   0      -6.077 -33.773  39.569  0.00  0.00     0.167 HD
ENDBRANCH  56  58
ENDBRANCH  55  56
ENDBRANCH  21  55
BRANCH  18  60
ATOM     60  C   UNK d   0      -9.223 -32.536  39.147  0.00  0.00     0.151 C 
BRANCH  60  61
ATOM     61  C   UNK d   0      -7.968 -31.800  39.362  0.00  0.00     0.143 C 
ATOM     62  O   UNK d   0      -7.702 -31.042  40.296  0.00  0.00    -0.650 OA
BRANCH  61  63
ATOM     63  O   UNK d   0      -6.974 -32.003  38.375  0.00  0.00    -0.776 OA
ATOM     64  H   UNK d   0      -7.080 -32.711  37.671  0.00  0.00     0.167 HD
ENDBRANCH  61  63
ENDBRANCH  60  61
ENDBRANCH  18  60
BRANCH  14  65
ATOM     65  C   UNK d   0     -11.469 -30.869  40.325  0.00  0.00     0.052 C 
BRANCH  65  66
ATOM     66  C   UNK d   0     -11.077 -29.517  40.805  0.00  0.00     0.115 C 
BRANCH  66  67
ATOM     67  C   UNK d   0     -10.299 -28.658  39.958  0.00  0.00     0.139 C 
ATOM     68  O   UNK d   0     -10.911 -27.930  39.093  0.00  0.00    -0.650 OA
BRANCH  67  69
ATOM     69  O   UNK d   0      -8.913 -28.501  39.945  0.00  0.00    -0.776 OA
ATOM     70  H   UNK d   0      -8.570 -27.539  40.077  0.00  0.00     0.167 HD
ENDBRANCH  67  69
ENDBRANCH  66  67
ENDBRANCH  65  66
ENDBRANCH  14  65
ENDBRANCH   6   7
ENDBRANCH   5   6
ENDBRANCH   2   5
TORSDOF 28
ENDMDL
MODEL 9
REMARK VINA RESULT:      -6.0     17.344     23.597
REMARK  28 active torsions:
REMARK  status: ('A' for Active; 'I' for Inactive)
REMARK    1  A    between atoms: C_2  and  O_3 
REMARK    2  A    between atoms: C_2  and  C_4 
REMARK    3  A    between atoms: C_4  and  C_5 
REMARK    4  A    between atoms: C_5  and  C_6 
REMARK    5  A    between atoms: C_7  and  C_8 
REMARK    6  A    between atoms: C_8  and  C_9 
REMARK    7  A    between atoms: C_9  and  O_11 
REMARK    8  A    between atoms: C_28  and  C_29 
REMARK    9  A    between atoms: C_29  and  C_30 
REMARK   10  A    between atoms: C_30  and  O_32 
REMARK   11  A    between atoms: C_33  and  C_34 
REMARK   12  A    between atoms: C_34  and  C_35 
REMARK   13  A    between atoms: C_35  and  C_36 
REMARK   14  A    between atoms: C_36  and  O_38 
REMARK   15  A    between atoms: C_39  and  C_40 
REMARK   16  A    between atoms: C_40  and  C_41 
REMARK   17  A    between atoms: C_41  and  C_42 
REMARK   18  A    between atoms: C_42  and  O_44 
REMARK   19  A    between atoms: C_45  and  C_46 
REMARK   20  A    between atoms: C_46  and  C_47 
REMARK   21  A    between atoms: C_47  and  O_49 
REMARK   22  A    between atoms: C_50  and  C_51 
REMARK   23  A    between atoms: C_51  and  C_52 
REMARK   24  A    between atoms: C_52  and  O_54 
REMARK   25  A    between atoms: C_55  and  C_56 
REMARK   26  A    between atoms: C_56  and  C_57 
REMARK   27  A    between atoms: C_57  and  C_58 
REMARK   28  A    between atoms: C_58  and  O_60 
ROOT
ATOM      1  O   UNK d   0     -20.387 -17.961  56.841  0.00  0.00    -0.650 OA
ATOM      2  C   UNK d   0     -20.095 -17.805  58.048  0.00  0.00     0.139 C 
ENDROOT
BRANCH   2   3
ATOM      3  O   UNK d   0     -20.809 -18.481  59.007  0.00  0.00    -0.776 OA
ATOM      4  H   UNK d   0     -21.489 -17.997  59.597  0.00  0.00     0.167 HD
ENDBRANCH   2   3
BRANCH   2   5
ATOM      5  C   UNK d   0     -18.982 -16.893  58.436  0.00  0.00     0.115 C 
BRANCH   5   6
ATOM      6  C   UNK d   0     -17.656 -17.569  58.213  0.00  0.00     0.052 C 
BRANCH   6   7
ATOM      7  C   UNK d   0     -17.423 -18.719  59.163  0.00  0.00    -0.020 A 
ATOM      8  C   UNK d   0     -17.144 -19.961  58.860  0.00  0.00    -0.011 A 
ATOM      9  C   UNK d   0     -17.015 -20.704  60.102  0.00  0.00     0.067 A 
ATOM     10  C   UNK d   0     -16.715 -22.026  60.465  0.00  0.00     0.062 C 
ATOM     11  N   UNK d   0     -17.238 -19.837  61.112  0.00  0.00    -0.248 NA
ATOM     12  C   UNK d   0     -16.361 -22.497  61.734  0.00  0.00     0.041 A 
ATOM     13  N   UNK d   0     -16.858 -22.217  62.954  0.00  0.00    -0.355 N 
ATOM     14  C   UNK d   0     -15.273 -23.380  61.853  0.00  0.00    -0.022 A 
ATOM     15  C   UNK d   0     -16.107 -22.893  63.844  0.00  0.00     0.042 A 
ATOM     16  H   UNK d   0     -17.734 -21.570  63.180  0.00  0.00     0.166 HD
ATOM     17  C   UNK d   0     -16.193 -22.957  65.249  0.00  0.00     0.062 C 
ATOM     18  C   UNK d   0     -15.103 -23.634  63.191  0.00  0.00    -0.013 A 
ATOM     19  C   UNK d   0     -16.375 -21.939  66.149  0.00  0.00     0.067 A 
ATOM     20  N   UNK d   0     -16.715 -20.746  65.653  0.00  0.00    -0.248 NA
ATOM     21  C   UNK d   0     -16.280 -21.790  67.592  0.00  0.00    -0.011 A 
ATOM     22  C   UNK d   0     -16.847 -19.828  66.666  0.00  0.00     0.066 A 
ATOM     23  C   UNK d   0     -17.236 -18.550  66.292  0.00  0.00     0.062 C 
ATOM     24  C   UNK d   0     -16.553 -20.551  67.887  0.00  0.00    -0.020 A 
ATOM     25  C   UNK d   0     -17.599 -18.100  65.014  0.00  0.00     0.041 A 
ATOM     26  N   UNK d   0     -17.097 -18.367  63.802  0.00  0.00    -0.355 N 
ATOM     27  C   UNK d   0     -18.695 -17.218  64.895  0.00  0.00    -0.022 A 
ATOM     28  C   UNK d   0     -17.838 -17.687  62.913  0.00  0.00     0.042 A 
ATOM     29  H   UNK d   0     -16.210 -19.010  63.578  0.00  0.00     0.166 HD
ATOM     30  C   UNK d   0     -17.758 -17.607  61.514  0.00  0.00     0.062 C 
ATOM     31  C   UNK d   0     -18.853 -16.952  63.570  0.00  0.00    -0.013 A 
ATOM     32  C   UNK d   0     -17.489 -18.626  60.614  0.00  0.00     0.066 A 
BRANCH   8  33
ATOM     33  C   UNK d   0     -16.988 -20.528  57.508  0.00  0.00     0.151 C 
BRANCH  33  34
ATOM     34  C   UNK d   0     -18.278 -20.733  56.823  0.00  0.00     0.143 C 
ATOM     35  O   UNK d   0     -19.102 -21.553  57.252  0.00  0.00    -0.650 OA
BRANCH  34  36
ATOM     36  O   UNK d   0     -18.566 -20.005  55.693  0.00  0.00    -0.776 OA
ATOM     37  H   UNK d   0     -17.862 -19.860  54.956  0.00  0.00     0.167 HD
ENDBRANCH  34  36
ENDBRANCH  33  34
ENDBRANCH   8  33
BRANCH  31  38
ATOM     38  C   UNK d   0     -19.912 -16.064  62.959  0.00  0.00     0.151 C 
BRANCH  38  39
ATOM     39  C   UNK d   0     -21.133 -16.777  62.648  0.00  0.00     0.143 C 
ATOM     40  O   UNK d   0     -21.276 -17.424  61.596  0.00  0.00    -0.650 OA
BRANCH  39  41
ATOM     41  O   UNK d   0     -22.194 -16.747  63.553  0.00  0.00    -0.776 OA
ATOM     42  H   UNK d   0     -23.084 -16.373  63.208  0.00  0.00     0.167 HD
ENDBRANCH  39  41
ENDBRANCH  38  39
ENDBRANCH  31  38
BRANCH  27  43
ATOM     43  C   UNK d   0     -19.574 -16.631  65.971  0.00  0.00     0.052 C 
BRANCH  43  44
ATOM     44  C   UNK d   0     -19.229 -15.217  66.310  0.00  0.00     0.115 C 
BRANCH  44  45
ATOM     45  C   UNK d   0     -18.536 -15.253  67.624  0.00  0.00     0.139 C 
ATOM     46  O   UNK d   0     -17.796 -14.285  67.930  0.00  0.00    -0.650 OA
BRANCH  45  47
ATOM     47  O   UNK d   0     -18.676 -16.295  68.515  0.00  0.00    -0.776 OA
ATOM     48  H   UNK d   0     -19.251 -17.130  68.315  0.00  0.00     0.167 HD
ENDBRANCH  45  47
ENDBRANCH  44  45
ENDBRANCH  43  44
ENDBRANCH  27  43
BRANCH  24  49
ATOM     49  C   UNK d   0     -16.609 -19.974  69.241  0.00  0.00     0.052 C 
BRANCH  49  50
ATOM     50  C   UNK d   0     -15.268 -19.403  69.624  0.00  0.00     0.115 C 
BRANCH  50  51
ATOM     51  C   UNK d   0     -15.027 -18.001  69.307  0.00  0.00     0.139 C 
ATOM     52  O   UNK d   0     -15.949 -17.155  69.241  0.00  0.00    -0.650 OA
BRANCH  51  53
ATOM     53  O   UNK d   0     -13.734 -17.566  69.063  0.00  0.00    -0.776 OA
ATOM     54  H   UNK d   0     -13.164 -18.098  68.429  0.00  0.00     0.167 HD
ENDBRANCH  51  53
ENDBRANCH  50  51
ENDBRANCH  49  50
ENDBRANCH  24  49
BRANCH  21  55
ATOM     55  C   UNK d   0     -15.930 -22.901  68.525  0.00  0.00     0.151 C 
BRANCH  55  56
ATOM     56  C   UNK d   0     -14.497 -23.230  68.478  0.00  0.00     0.143 C 
ATOM     57  O   UNK d   0     -13.622 -22.511  69.000  0.00  0.00    -0.650 OA
BRANCH  56  58
ATOM     58  O   UNK d   0     -14.120 -24.399  67.819  0.00  0.00    -0.776 OA
ATOM     59  H   UNK d   0     -13.533 -24.255  66.978  0.00  0.00     0.167 HD
ENDBRANCH  56  58
ENDBRANCH  55  56
ENDBRANCH  21  55
BRANCH  18  60
ATOM     60  C   UNK d   0     -14.037 -24.529  63.773  0.00  0.00     0.151 C 
BRANCH  60  61
ATOM     61  C   UNK d   0     -12.979 -23.631  64.261  0.00  0.00     0.143 C 
ATOM     62  O   UNK d   0     -12.551 -22.618  63.707  0.00  0.00    -0.650 OA
BRANCH  61  63
ATOM     63  O   UNK d   0     -12.406 -23.995  65.504  0.00  0.00    -0.776 OA
ATOM     64  H   UNK d   0     -12.531 -24.917  65.882  0.00  0.00     0.167 HD
ENDBRANCH  61  63
ENDBRANCH  60  61
ENDBRANCH  18  60
BRANCH  14  65
ATOM     65  C   UNK d   0     -14.452 -24.072  60.802  0.00  0.00     0.052 C 
BRANCH  65  66
ATOM     66  C   UNK d   0     -13.428 -23.186  60.186  0.00  0.00     0.115 C 
BRANCH  66  67
ATOM     67  C   UNK d   0     -12.034 -23.498  60.334  0.00  0.00     0.139 C 
ATOM     68  O   UNK d   0     -11.500 -24.328  59.509  0.00  0.00    -0.650 OA
BRANCH  67  69
ATOM     69  O   UNK d   0     -11.146 -23.006  61.289  0.00  0.00    -0.776 OA
ATOM     70  H   UNK d   0     -10.792 -22.053  61.123  0.00  0.00     0.167 HD
ENDBRANCH  67  69
ENDBRANCH  66  67
ENDBRANCH  65  66
ENDBRANCH  14  65
ENDBRANCH   6   7
ENDBRANCH   5   6
ENDBRANCH   2   5
TORSDOF 28
ENDMDL
MODEL 10
REMARK VINA RESULT:      -6.0     30.111     32.852
REMARK  28 active torsions:
REMARK  status: ('A' for Active; 'I' for Inactive)
REMARK    1  A    between atoms: C_2  and  O_3 
REMARK    2  A    between atoms: C_2  and  C_4 
REMARK    3  A    between atoms: C_4  and  C_5 
REMARK    4  A    between atoms: C_5  and  C_6 
REMARK    5  A    between atoms: C_7  and  C_8 
REMARK    6  A    between atoms: C_8  and  C_9 
REMARK    7  A    between atoms: C_9  and  O_11 
REMARK    8  A    between atoms: C_28  and  C_29 
REMARK    9  A    between atoms: C_29  and  C_30 
REMARK   10  A    between atoms: C_30  and  O_32 
REMARK   11  A    between atoms: C_33  and  C_34 
REMARK   12  A    between atoms: C_34  and  C_35 
REMARK   13  A    between atoms: C_35  and  C_36 
REMARK   14  A    between atoms: C_36  and  O_38 
REMARK   15  A    between atoms: C_39  and  C_40 
REMARK   16  A    between atoms: C_40  and  C_41 
REMARK   17  A    between atoms: C_41  and  C_42 
REMARK   18  A    between atoms: C_42  and  O_44 
REMARK   19  A    between atoms: C_45  and  C_46 
REMARK   20  A    between atoms: C_46  and  C_47 
REMARK   21  A    between atoms: C_47  and  O_49 
REMARK   22  A    between atoms: C_50  and  C_51 
REMARK   23  A    between atoms: C_51  and  C_52 
REMARK   24  A    between atoms: C_52  and  O_54 
REMARK   25  A    between atoms: C_55  and  C_56 
REMARK   26  A    between atoms: C_56  and  C_57 
REMARK   27  A    between atoms: C_57  and  C_58 
REMARK   28  A    between atoms: C_58  and  O_60 
ROOT
ATOM      1  O   UNK d   0       7.714  -5.853  55.982  0.00  0.00    -0.650 OA
ATOM      2  C   UNK d   0       8.430  -4.840  56.136  0.00  0.00     0.139 C 
ENDROOT
BRANCH   2   3
ATOM      3  O   UNK d   0       9.347  -4.811  57.159  0.00  0.00    -0.776 OA
ATOM      4  H   UNK d   0       9.213  -5.372  58.003  0.00  0.00     0.167 HD
ENDBRANCH   2   3
BRANCH   2   5
ATOM      5  C   UNK d   0       8.287  -3.676  55.216  0.00  0.00     0.115 C 
BRANCH   5   6
ATOM      6  C   UNK d   0       9.318  -3.750  54.122  0.00  0.00     0.052 C 
BRANCH   6   7
ATOM      7  C   UNK d   0       9.362  -5.105  53.457  0.00  0.00    -0.020 A 
ATOM      8  C   UNK d   0       8.553  -5.570  52.539  0.00  0.00    -0.011 A 
ATOM      9  C   UNK d   0       8.982  -6.919  52.211  0.00  0.00     0.067 A 
ATOM     10  C   UNK d   0       8.570  -7.925  51.322  0.00  0.00     0.062 C 
ATOM     11  N   UNK d   0      10.056  -7.197  52.979  0.00  0.00    -0.248 NA
ATOM     12  C   UNK d   0       9.283  -9.068  50.946  0.00  0.00     0.041 A 
ATOM     13  N   UNK d   0      10.017  -9.933  51.672  0.00  0.00    -0.355 N 
ATOM     14  C   UNK d   0       9.341  -9.417  49.585  0.00  0.00    -0.022 A 
ATOM     15  C   UNK d   0      10.545 -10.818  50.805  0.00  0.00     0.042 A 
ATOM     16  H   UNK d   0      10.143  -9.930  52.777  0.00  0.00     0.166 HD
ATOM     17  C   UNK d   0      11.386 -11.926  51.029  0.00  0.00     0.062 C 
ATOM     18  C   UNK d   0      10.144 -10.526  49.486  0.00  0.00    -0.013 A 
ATOM     19  C   UNK d   0      12.497 -12.018  51.827  0.00  0.00     0.067 A 
ATOM     20  N   UNK d   0      12.726 -11.003  52.665  0.00  0.00    -0.248 NA
ATOM     21  C   UNK d   0      13.574 -12.977  52.013  0.00  0.00    -0.011 A 
ATOM     22  C   UNK d   0      13.874 -11.228  53.384  0.00  0.00     0.066 A 
ATOM     23  C   UNK d   0      14.211 -10.265  54.323  0.00  0.00     0.062 C 
ATOM     24  C   UNK d   0      14.378 -12.506  52.922  0.00  0.00    -0.020 A 
ATOM     25  C   UNK d   0      13.474  -9.130  54.695  0.00  0.00     0.041 A 
ATOM     26  N   UNK d   0      12.757  -8.261  53.972  0.00  0.00    -0.355 N 
ATOM     27  C   UNK d   0      13.413  -8.782  56.062  0.00  0.00    -0.022 A 
ATOM     28  C   UNK d   0      12.237  -7.373  54.833  0.00  0.00     0.042 A 
ATOM     29  H   UNK d   0      12.640  -8.259  52.860  0.00  0.00     0.166 HD
ATOM     30  C   UNK d   0      11.407  -6.260  54.623  0.00  0.00     0.062 C 
ATOM     31  C   UNK d   0      12.632  -7.672  56.159  0.00  0.00    -0.013 A 
ATOM     32  C   UNK d   0      10.336  -6.146  53.751  0.00  0.00     0.066 A 
BRANCH   8  33
ATOM     33  C   UNK d   0       7.403  -4.871  51.937  0.00  0.00     0.151 C 
BRANCH  33  34
ATOM     34  C   UNK d   0       6.107  -5.402  52.398  0.00  0.00     0.143 C 
ATOM     35  O   UNK d   0       5.107  -5.365  51.667  0.00  0.00    -0.650 OA
BRANCH  34  36
ATOM     36  O   UNK d   0       6.010  -5.944  53.659  0.00  0.00    -0.776 OA
ATOM     37  H   UNK d   0       6.703  -6.621  54.004  0.00  0.00     0.167 HD
ENDBRANCH  34  36
ENDBRANCH  33  34
ENDBRANCH   8  33
BRANCH  31  38
ATOM     38  C   UNK d   0      12.269  -6.946  57.433  0.00  0.00     0.151 C 
BRANCH  38  39
ATOM     39  C   UNK d   0      11.129  -7.529  58.107  0.00  0.00     0.143 C 
ATOM     40  O   UNK d   0      10.036  -7.700  57.539  0.00  0.00    -0.650 OA
BRANCH  39  41
ATOM     41  O   UNK d   0      11.246  -7.918  59.441  0.00  0.00    -0.776 OA
ATOM     42  H   UNK d   0      10.752  -8.773  59.718  0.00  0.00     0.167 HD
ENDBRANCH  39  41
ENDBRANCH  38  39
ENDBRANCH  31  38
BRANCH  27  43
ATOM     43  C   UNK d   0      14.058  -9.451  57.250  0.00  0.00     0.052 C 
BRANCH  43  44
ATOM     44  C   UNK d   0      13.272 -10.609  57.775  0.00  0.00     0.115 C 
BRANCH  44  45
ATOM     45  C   UNK d   0      13.423 -10.589  59.253  0.00  0.00     0.139 C 
ATOM     46  O   UNK d   0      13.241 -11.661  59.881  0.00  0.00    -0.650 OA
BRANCH  45  47
ATOM     47  O   UNK d   0      13.757  -9.451  59.955  0.00  0.00    -0.776 OA
ATOM     48  H   UNK d   0      13.172  -8.600  59.954  0.00  0.00     0.167 HD
ENDBRANCH  45  47
ENDBRANCH  44  45
ENDBRANCH  43  44
ENDBRANCH  27  43
BRANCH  24  49
ATOM     49  C   UNK d   0      15.582 -13.174  53.446  0.00  0.00     0.052 C 
BRANCH  49  50
ATOM     50  C   UNK d   0      15.299 -13.782  54.796  0.00  0.00     0.115 C 
BRANCH  50  51
ATOM     51  C   UNK d   0      15.959 -13.182  55.947  0.00  0.00     0.139 C 
ATOM     52  O   UNK d   0      15.919 -13.693  57.092  0.00  0.00    -0.650 OA
BRANCH  51  53
ATOM     53  O   UNK d   0      16.663 -11.998  55.794  0.00  0.00    -0.776 OA
ATOM     54  H   UNK d   0      16.504 -11.261  56.458  0.00  0.00     0.167 HD
ENDBRANCH  51  53
ENDBRANCH  50  51
ENDBRANCH  49  50
ENDBRANCH  24  49
BRANCH  21  55
ATOM     55  C   UNK d   0      13.683 -14.264  51.266  0.00  0.00     0.151 C 
BRANCH  55  56
ATOM     56  C   UNK d   0      12.789 -15.297  51.812  0.00  0.00     0.143 C 
ATOM     57  O   UNK d   0      11.551 -15.259  51.674  0.00  0.00    -0.650 OA
BRANCH  56  58
ATOM     58  O   UNK d   0      13.369 -16.354  52.511  0.00  0.00    -0.776 OA
ATOM     59  H   UNK d   0      14.405 -16.358  52.516  0.00  0.00     0.167 HD
ENDBRANCH  56  58
ENDBRANCH  55  56
ENDBRANCH  21  55
BRANCH  18  60
ATOM     60  C   UNK d   0      10.487 -11.234  48.199  0.00  0.00     0.151 C 
BRANCH  60  61
ATOM     61  C   UNK d   0      11.508 -10.405  47.542  0.00  0.00     0.143 C 
ATOM     62  O   UNK d   0      12.294  -9.628  48.084  0.00  0.00    -0.650 OA
BRANCH  61  63
ATOM     63  O   UNK d   0      11.574 -10.533  46.133  0.00  0.00    -0.776 OA
ATOM     64  H   UNK d   0      12.330 -11.026  45.693  0.00  0.00     0.167 HD
ENDBRANCH  61  63
ENDBRANCH  60  61
ENDBRANCH  18  60
BRANCH  14  65
ATOM     65  C   UNK d   0       8.623  -8.847  48.395  0.00  0.00     0.052 C 
BRANCH  65  66
ATOM     66  C   UNK d   0       9.240  -7.591  47.890  0.00  0.00     0.115 C 
BRANCH  66  67
ATOM     67  C   UNK d   0       9.296  -7.344  46.477  0.00  0.00     0.139 C 
ATOM     68  O   UNK d   0       8.778  -6.258  46.023  0.00  0.00    -0.650 OA
BRANCH  67  69
ATOM     69  O   UNK d   0       9.857  -8.154  45.490  0.00  0.00    -0.776 OA
ATOM     70  H   UNK d   0      10.304  -9.020  45.823  0.00  0.00     0.167 HD
ENDBRANCH  67  69
ENDBRANCH  66  67
ENDBRANCH  65  66
ENDBRANCH  14  65
ENDBRANCH   6   7
ENDBRANCH   5   6
ENDBRANCH   2   5
TORSDOF 28
ENDMDL
MODEL 11
REMARK VINA RESULT:      -6.0      1.372      8.233
REMARK  28 active torsions:
REMARK  status: ('A' for Active; 'I' for Inactive)
REMARK    1  A    between atoms: C_2  and  O_3 
REMARK    2  A    between atoms: C_2  and  C_4 
REMARK    3  A    between atoms: C_4  and  C_5 
REMARK    4  A    between atoms: C_5  and  C_6 
REMARK    5  A    between atoms: C_7  and  C_8 
REMARK    6  A    between atoms: C_8  and  C_9 
REMARK    7  A    between atoms: C_9  and  O_11 
REMARK    8  A    between atoms: C_28  and  C_29 
REMARK    9  A    between atoms: C_29  and  C_30 
REMARK   10  A    between atoms: C_30  and  O_32 
REMARK   11  A    between atoms: C_33  and  C_34 
REMARK   12  A    between atoms: C_34  and  C_35 
REMARK   13  A    between atoms: C_35  and  C_36 
REMARK   14  A    between atoms: C_36  and  O_38 
REMARK   15  A    between atoms: C_39  and  C_40 
REMARK   16  A    between atoms: C_40  and  C_41 
REMARK   17  A    between atoms: C_41  and  C_42 
REMARK   18  A    between atoms: C_42  and  O_44 
REMARK   19  A    between atoms: C_45  and  C_46 
REMARK   20  A    between atoms: C_46  and  C_47 
REMARK   21  A    between atoms: C_47  and  O_49 
REMARK   22  A    between atoms: C_50  and  C_51 
REMARK   23  A    between atoms: C_51  and  C_52 
REMARK   24  A    between atoms: C_52  and  O_54 
REMARK   25  A    between atoms: C_55  and  C_56 
REMARK   26  A    between atoms: C_56  and  C_57 
REMARK   27  A    between atoms: C_57  and  C_58 
REMARK   28  A    between atoms: C_58  and  O_60 
ROOT
ATOM      1  O   UNK d   0     -16.331 -31.036  43.411  0.00  0.00    -0.650 OA
ATOM      2  C   UNK d   0     -15.751 -29.933  43.307  0.00  0.00     0.139 C 
ENDROOT
BRANCH   2   3
ATOM      3  O   UNK d   0     -15.963 -29.163  42.189  0.00  0.00    -0.776 OA
ATOM      4  H   UNK d   0     -16.600 -28.364  42.212  0.00  0.00     0.167 HD
ENDBRANCH   2   3
BRANCH   2   5
ATOM      5  C   UNK d   0     -14.839 -29.462  44.389  0.00  0.00     0.115 C 
BRANCH   5   6
ATOM      6  C   UNK d   0     -13.478 -29.160  43.823  0.00  0.00     0.052 C 
BRANCH   6   7
ATOM      7  C   UNK d   0     -12.577 -30.372  43.798  0.00  0.00    -0.020 A 
ATOM      8  C   UNK d   0     -12.420 -31.230  42.823  0.00  0.00    -0.011 A 
ATOM      9  C   UNK d   0     -11.460 -32.229  43.260  0.00  0.00     0.067 A 
ATOM     10  C   UNK d   0     -10.859 -33.369  42.702  0.00  0.00     0.062 C 
ATOM     11  N   UNK d   0     -11.088 -31.905  44.516  0.00  0.00    -0.248 NA
ATOM     12  C   UNK d   0      -9.737 -34.055  43.179  0.00  0.00     0.041 A 
ATOM     13  N   UNK d   0      -9.381 -34.411  44.428  0.00  0.00    -0.355 N 
ATOM     14  C   UNK d   0      -8.730 -34.428  42.271  0.00  0.00    -0.022 A 
ATOM     15  C   UNK d   0      -8.171 -34.994  44.336  0.00  0.00     0.042 A 
ATOM     16  H   UNK d   0      -9.982 -34.271  45.354  0.00  0.00     0.166 HD
ATOM     17  C   UNK d   0      -7.345 -35.547  45.335  0.00  0.00     0.062 C 
ATOM     18  C   UNK d   0      -7.730 -35.022  42.999  0.00  0.00    -0.013 A 
ATOM     19  C   UNK d   0      -7.028 -35.040  46.570  0.00  0.00     0.067 A 
ATOM     20  N   UNK d   0      -7.729 -33.984  46.989  0.00  0.00    -0.248 NA
ATOM     21  C   UNK d   0      -6.062 -35.352  47.610  0.00  0.00    -0.011 A 
ATOM     22  C   UNK d   0      -7.291 -33.581  48.227  0.00  0.00     0.066 A 
ATOM     23  C   UNK d   0      -7.962 -32.511  48.800  0.00  0.00     0.062 C 
ATOM     24  C   UNK d   0      -6.218 -34.492  48.575  0.00  0.00    -0.020 A 
ATOM     25  C   UNK d   0      -9.095 -31.844  48.310  0.00  0.00     0.041 A 
ATOM     26  N   UNK d   0      -9.442 -31.476  47.070  0.00  0.00    -0.355 N 
ATOM     27  C   UNK d   0     -10.108 -31.473  49.222  0.00  0.00    -0.022 A 
ATOM     28  C   UNK d   0     -10.645 -30.887  47.160  0.00  0.00     0.042 A 
ATOM     29  H   UNK d   0      -8.833 -31.608  46.143  0.00  0.00     0.166 HD
ATOM     30  C   UNK d   0     -11.473 -30.325  46.176  0.00  0.00     0.062 C 
ATOM     31  C   UNK d   0     -11.092 -30.868  48.503  0.00  0.00    -0.013 A 
ATOM     32  C   UNK d   0     -11.724 -30.797  44.898  0.00  0.00     0.066 A 
BRANCH   8  33
ATOM     33  C   UNK d   0     -13.091 -31.210  41.510  0.00  0.00     0.151 C 
BRANCH  33  34
ATOM     34  C   UNK d   0     -12.735 -30.027  40.705  0.00  0.00     0.143 C 
ATOM     35  O   UNK d   0     -11.552 -29.768  40.444  0.00  0.00    -0.650 OA
BRANCH  34  36
ATOM     36  O   UNK d   0     -13.732 -29.201  40.241  0.00  0.00    -0.776 OA
ATOM     37  H   UNK d   0     -13.743 -28.872  39.266  0.00  0.00     0.167 HD
ENDBRANCH  34  36
ENDBRANCH  33  34
ENDBRANCH   8  33
BRANCH  31  38
ATOM     38  C   UNK d   0     -12.387 -30.316  49.053  0.00  0.00     0.151 C 
BRANCH  38  39
ATOM     39  C   UNK d   0     -12.253 -28.964  49.552  0.00  0.00     0.143 C 
ATOM     40  O   UNK d   0     -12.173 -28.708  50.766  0.00  0.00    -0.650 OA
BRANCH  39  41
ATOM     41  O   UNK d   0     -12.211 -27.901  48.650  0.00  0.00    -0.776 OA
ATOM     42  H   UNK d   0     -12.872 -27.933  47.868  0.00  0.00     0.167 HD
ENDBRANCH  39  41
ENDBRANCH  38  39
ENDBRANCH  31  38
BRANCH  27  43
ATOM     43  C   UNK d   0     -10.169 -31.668  50.716  0.00  0.00     0.052 C 
BRANCH  43  44
ATOM     44  C   UNK d   0      -9.296 -30.719  51.472  0.00  0.00     0.115 C 
BRANCH  44  45
ATOM     45  C   UNK d   0      -9.446 -31.059  52.911  0.00  0.00     0.139 C 
ATOM     46  O   UNK d   0     -10.522 -30.752  53.482  0.00  0.00    -0.650 OA
BRANCH  45  47
ATOM     47  O   UNK d   0      -8.462 -31.696  53.634  0.00  0.00    -0.776 OA
ATOM     48  H   UNK d   0      -7.911 -32.485  53.257  0.00  0.00     0.167 HD
ENDBRANCH  45  47
ENDBRANCH  44  45
ENDBRANCH  43  44
ENDBRANCH  27  43
BRANCH  24  49
ATOM     49  C   UNK d   0      -5.471 -34.465  49.844  0.00  0.00     0.052 C 
BRANCH  49  50
ATOM     50  C   UNK d   0      -6.268 -35.132  50.936  0.00  0.00     0.115 C 
BRANCH  50  51
ATOM     51  C   UNK d   0      -6.945 -34.264  51.890  0.00  0.00     0.139 C 
ATOM     52  O   UNK d   0      -8.178 -34.329  52.107  0.00  0.00    -0.650 OA
BRANCH  51  53
ATOM     53  O   UNK d   0      -6.216 -33.319  52.595  0.00  0.00    -0.776 OA
ATOM     54  H   UNK d   0      -6.601 -32.965  53.454  0.00  0.00     0.167 HD
ENDBRANCH  51  53
ENDBRANCH  50  51
ENDBRANCH  49  50
ENDBRANCH  24  49
BRANCH  21  55
ATOM     55  C   UNK d   0      -5.086 -36.479  47.533  0.00  0.00     0.151 C 
BRANCH  55  56
ATOM     56  C   UNK d   0      -5.590 -37.691  48.198  0.00  0.00     0.143 C 
ATOM     57  O   UNK d   0      -5.151 -38.092  49.293  0.00  0.00    -0.650 OA
BRANCH  56  58
ATOM     58  O   UNK d   0      -6.602 -38.408  47.560  0.00  0.00    -0.776 OA
ATOM     59  H   UNK d   0      -6.976 -37.965  46.701  0.00  0.00     0.167 HD
ENDBRANCH  56  58
ENDBRANCH  55  56
ENDBRANCH  21  55
BRANCH  18  60
ATOM     60  C   UNK d   0      -6.447 -35.568  42.422  0.00  0.00     0.151 C 
BRANCH  60  61
ATOM     61  C   UNK d   0      -6.745 -36.949  42.011  0.00  0.00     0.143 C 
ATOM     62  O   UNK d   0      -7.089 -37.882  42.737  0.00  0.00    -0.650 OA
BRANCH  61  63
ATOM     63  O   UNK d   0      -6.615 -37.206  40.624  0.00  0.00    -0.776 OA
ATOM     64  H   UNK d   0      -6.731 -38.133  40.256  0.00  0.00     0.167 HD
ENDBRANCH  61  63
ENDBRANCH  60  61
ENDBRANCH  18  60
BRANCH  14  65
ATOM     65  C   UNK d   0      -8.686 -34.356  40.771  0.00  0.00     0.052 C 
BRANCH  65  66
ATOM     66  C   UNK d   0      -8.085 -33.092  40.267  0.00  0.00     0.115 C 
BRANCH  66  67
ATOM     67  C   UNK d   0      -8.856 -32.224  39.421  0.00  0.00     0.139 C 
ATOM     68  O   UNK d   0      -8.234 -31.463  38.593  0.00  0.00    -0.650 OA
BRANCH  67  69
ATOM     69  O   UNK d   0     -10.243 -32.090  39.375  0.00  0.00    -0.776 OA
ATOM     70  H   UNK d   0     -10.614 -31.170  39.654  0.00  0.00     0.167 HD
ENDBRANCH  67  69
ENDBRANCH  66  67
ENDBRANCH  65  66
ENDBRANCH  14  65
ENDBRANCH   6   7
ENDBRANCH   5   6
ENDBRANCH   2   5
TORSDOF 28
ENDMDL
MODEL 12
REMARK VINA RESULT:      -6.0     15.951     22.432
REMARK  28 active torsions:
REMARK  status: ('A' for Active; 'I' for Inactive)
REMARK    1  A    between atoms: C_2  and  O_3 
REMARK    2  A    between atoms: C_2  and  C_4 
REMARK    3  A    between atoms: C_4  and  C_5 
REMARK    4  A    between atoms: C_5  and  C_6 
REMARK    5  A    between atoms: C_7  and  C_8 
REMARK    6  A    between atoms: C_8  and  C_9 
REMARK    7  A    between atoms: C_9  and  O_11 
REMARK    8  A    between atoms: C_28  and  C_29 
REMARK    9  A    between atoms: C_29  and  C_30 
REMARK   10  A    between atoms: C_30  and  O_32 
REMARK   11  A    between atoms: C_33  and  C_34 
REMARK   12  A    between atoms: C_34  and  C_35 
REMARK   13  A    between atoms: C_35  and  C_36 
REMARK   14  A    between atoms: C_36  and  O_38 
REMARK   15  A    between atoms: C_39  and  C_40 
REMARK   16  A    between atoms: C_40  and  C_41 
REMARK   17  A    between atoms: C_41  and  C_42 
REMARK   18  A    between atoms: C_42  and  O_44 
REMARK   19  A    between atoms: C_45  and  C_46 
REMARK   20  A    between atoms: C_46  and  C_47 
REMARK   21  A    between atoms: C_47  and  O_49 
REMARK   22  A    between atoms: C_50  and  C_51 
REMARK   23  A    between atoms: C_51  and  C_52 
REMARK   24  A    between atoms: C_52  and  O_54 
REMARK   25  A    between atoms: C_55  and  C_56 
REMARK   26  A    between atoms: C_56  and  C_57 
REMARK   27  A    between atoms: C_57  and  C_58 
REMARK   28  A    between atoms: C_58  and  O_60 
ROOT
ATOM      1  O   UNK d   0     -19.223 -22.268  55.080  0.00  0.00    -0.650 OA
ATOM      2  C   UNK d   0     -17.981 -22.133  55.018  0.00  0.00     0.139 C 
ENDROOT
BRANCH   2   3
ATOM      3  O   UNK d   0     -17.454 -20.941  54.584  0.00  0.00    -0.776 OA
ATOM      4  H   UNK d   0     -18.050 -20.219  54.174  0.00  0.00     0.167 HD
ENDBRANCH   2   3
BRANCH   2   5
ATOM      5  C   UNK d   0     -17.085 -23.258  55.411  0.00  0.00     0.115 C 
BRANCH   5   6
ATOM      6  C   UNK d   0     -15.954 -22.746  56.261  0.00  0.00     0.052 C 
BRANCH   6   7
ATOM      7  C   UNK d   0     -16.309 -22.690  57.728  0.00  0.00    -0.020 A 
ATOM      8  C   UNK d   0     -16.271 -23.669  58.596  0.00  0.00    -0.011 A 
ATOM      9  C   UNK d   0     -16.708 -23.143  59.878  0.00  0.00     0.067 A 
ATOM     10  C   UNK d   0     -16.869 -23.649  61.178  0.00  0.00     0.062 C 
ATOM     11  N   UNK d   0     -16.997 -21.837  59.699  0.00  0.00    -0.248 NA
ATOM     12  C   UNK d   0     -17.037 -22.915  62.357  0.00  0.00     0.041 A 
ATOM     13  N   UNK d   0     -17.787 -21.830  62.627  0.00  0.00    -0.355 N 
ATOM     14  C   UNK d   0     -16.290 -23.273  63.494  0.00  0.00    -0.022 A 
ATOM     15  C   UNK d   0     -17.529 -21.485  63.903  0.00  0.00     0.042 A 
ATOM     16  H   UNK d   0     -18.500 -21.329  61.935  0.00  0.00     0.166 HD
ATOM     17  C   UNK d   0     -18.041 -20.432  64.686  0.00  0.00     0.062 C 
ATOM     18  C   UNK d   0     -16.594 -22.367  64.479  0.00  0.00    -0.013 A 
ATOM     19  C   UNK d   0     -18.223 -19.115  64.348  0.00  0.00     0.067 A 
ATOM     20  N   UNK d   0     -18.091 -18.798  63.057  0.00  0.00    -0.248 NA
ATOM     21  C   UNK d   0     -18.526 -17.886  65.061  0.00  0.00    -0.011 A 
ATOM     22  C   UNK d   0     -18.284 -17.451  62.875  0.00  0.00     0.066 A 
ATOM     23  C   UNK d   0     -18.213 -16.989  61.570  0.00  0.00     0.062 C 
ATOM     24  C   UNK d   0     -18.557 -16.915  64.195  0.00  0.00    -0.020 A 
ATOM     25  C   UNK d   0     -18.056 -17.744  60.397  0.00  0.00     0.041 A 
ATOM     26  N   UNK d   0     -17.299 -18.814  60.125  0.00  0.00    -0.355 N 
ATOM     27  C   UNK d   0     -18.810 -17.387  59.258  0.00  0.00    -0.022 A 
ATOM     28  C   UNK d   0     -17.548 -19.154  58.850  0.00  0.00     0.042 A 
ATOM     29  H   UNK d   0     -16.575 -19.309  60.818  0.00  0.00     0.166 HD
ATOM     30  C   UNK d   0     -17.039 -20.193  58.056  0.00  0.00     0.062 C 
ATOM     31  C   UNK d   0     -18.495 -18.274  58.275  0.00  0.00    -0.013 A 
ATOM     32  C   UNK d   0     -16.777 -21.503  58.426  0.00  0.00     0.066 A 
BRANCH   8  33
ATOM     33  C   UNK d   0     -15.868 -25.064  58.339  0.00  0.00     0.151 C 
BRANCH  33  34
ATOM     34  C   UNK d   0     -14.922 -25.578  59.346  0.00  0.00     0.143 C 
ATOM     35  O   UNK d   0     -15.247 -26.495  60.115  0.00  0.00    -0.650 OA
BRANCH  34  36
ATOM     36  O   UNK d   0     -13.663 -25.031  59.432  0.00  0.00    -0.776 OA
ATOM     37  H   UNK d   0     -13.274 -24.725  60.335  0.00  0.00     0.167 HD
ENDBRANCH  34  36
ENDBRANCH  33  34
ENDBRANCH   8  33
BRANCH  31  38
ATOM     38  C   UNK d   0     -19.068 -18.295  56.877  0.00  0.00     0.151 C 
BRANCH  38  39
ATOM     39  C   UNK d   0     -20.342 -18.979  56.803  0.00  0.00     0.143 C 
ATOM     40  O   UNK d   0     -21.413 -18.372  56.622  0.00  0.00    -0.650 OA
BRANCH  39  41
ATOM     41  O   UNK d   0     -20.385 -20.366  56.936  0.00  0.00    -0.776 OA
ATOM     42  H   UNK d   0     -19.774 -20.908  56.317  0.00  0.00     0.167 HD
ENDBRANCH  39  41
ENDBRANCH  38  39
ENDBRANCH  31  38
BRANCH  27  43
ATOM     43  C   UNK d   0     -19.793 -16.258  59.075  0.00  0.00     0.052 C 
BRANCH  43  44
ATOM     44  C   UNK d   0     -21.175 -16.598  59.531  0.00  0.00     0.115 C 
BRANCH  44  45
ATOM     45  C   UNK d   0     -22.090 -15.631  58.871  0.00  0.00     0.139 C 
ATOM     46  O   UNK d   0     -22.285 -14.523  59.430  0.00  0.00    -0.650 OA
BRANCH  45  47
ATOM     47  O   UNK d   0     -22.723 -15.898  57.676  0.00  0.00    -0.776 OA
ATOM     48  H   UNK d   0     -22.224 -15.936  56.773  0.00  0.00     0.167 HD
ENDBRANCH  45  47
ENDBRANCH  44  45
ENDBRANCH  43  44
ENDBRANCH  27  43
BRANCH  24  49
ATOM     49  C   UNK d   0     -18.867 -15.504  64.482  0.00  0.00     0.052 C 
BRANCH  49  50
ATOM     50  C   UNK d   0     -20.277 -15.181  64.061  0.00  0.00     0.115 C 
BRANCH  50  51
ATOM     51  C   UNK d   0     -21.325 -15.355  65.057  0.00  0.00     0.139 C 
ATOM     52  O   UNK d   0     -21.866 -16.464  65.282  0.00  0.00    -0.650 OA
BRANCH  51  53
ATOM     53  O   UNK d   0     -21.759 -14.265  65.796  0.00  0.00    -0.776 OA
ATOM     54  H   UNK d   0     -21.212 -13.422  65.765  0.00  0.00     0.167 HD
ENDBRANCH  51  53
ENDBRANCH  50  51
ENDBRANCH  49  50
ENDBRANCH  24  49
BRANCH  21  55
ATOM     55  C   UNK d   0     -18.759 -17.810  66.534  0.00  0.00     0.151 C 
BRANCH  55  56
ATOM     56  C   UNK d   0     -17.513 -17.567  67.277  0.00  0.00     0.143 C 
ATOM     57  O   UNK d   0     -16.525 -18.324  67.205  0.00  0.00    -0.650 OA
BRANCH  56  58
ATOM     58  O   UNK d   0     -17.453 -16.436  68.091  0.00  0.00    -0.776 OA
ATOM     59  H   UNK d   0     -16.531 -16.265  68.531  0.00  0.00     0.167 HD
ENDBRANCH  56  58
ENDBRANCH  55  56
ENDBRANCH  21  55
BRANCH  18  60
ATOM     60  C   UNK d   0     -16.008 -22.371  65.869  0.00  0.00     0.151 C 
BRANCH  60  61
ATOM     61  C   UNK d   0     -16.805 -23.338  66.640  0.00  0.00     0.143 C 
ATOM     62  O   UNK d   0     -18.021 -23.522  66.568  0.00  0.00    -0.650 OA
BRANCH  61  63
ATOM     63  O   UNK d   0     -16.072 -24.129  67.556  0.00  0.00    -0.776 OA
ATOM     64  H   UNK d   0     -16.510 -24.879  68.061  0.00  0.00     0.167 HD
ENDBRANCH  61  63
ENDBRANCH  60  61
ENDBRANCH  18  60
BRANCH  14  65
ATOM     65  C   UNK d   0     -15.394 -24.452  63.747  0.00  0.00     0.052 C 
BRANCH  65  66
ATOM     66  C   UNK d   0     -14.076 -24.339  63.066  0.00  0.00     0.115 C 
BRANCH  66  67
ATOM     67  C   UNK d   0     -13.089 -23.427  63.572  0.00  0.00     0.139 C 
ATOM     68  O   UNK d   0     -12.813 -23.457  64.827  0.00  0.00    -0.650 OA
BRANCH  67  69
ATOM     69  O   UNK d   0     -12.361 -22.475  62.858  0.00  0.00    -0.776 OA
ATOM     70  H   UNK d   0     -11.759 -22.842  62.108  0.00  0.00     0.167 HD
ENDBRANCH  67  69
ENDBRANCH  66  67
ENDBRANCH  65  66
ENDBRANCH  14  65
ENDBRANCH   6   7
ENDBRANCH   5   6
ENDBRANCH   2   5
TORSDOF 28
ENDMDL
MODEL 13
REMARK VINA RESULT:      -5.9      1.631      7.761
REMARK  28 active torsions:
REMARK  status: ('A' for Active; 'I' for Inactive)
REMARK    1  A    between atoms: C_2  and  O_3 
REMARK    2  A    between atoms: C_2  and  C_4 
REMARK    3  A    between atoms: C_4  and  C_5 
REMARK    4  A    between atoms: C_5  and  C_6 
REMARK    5  A    between atoms: C_7  and  C_8 
REMARK    6  A    between atoms: C_8  and  C_9 
REMARK    7  A    between atoms: C_9  and  O_11 
REMARK    8  A    between atoms: C_28  and  C_29 
REMARK    9  A    between atoms: C_29  and  C_30 
REMARK   10  A    between atoms: C_30  and  O_32 
REMARK   11  A    between atoms: C_33  and  C_34 
REMARK   12  A    between atoms: C_34  and  C_35 
REMARK   13  A    between atoms: C_35  and  C_36 
REMARK   14  A    between atoms: C_36  and  O_38 
REMARK   15  A    between atoms: C_39  and  C_40 
REMARK   16  A    between atoms: C_40  and  C_41 
REMARK   17  A    between atoms: C_41  and  C_42 
REMARK   18  A    between atoms: C_42  and  O_44 
REMARK   19  A    between atoms: C_45  and  C_46 
REMARK   20  A    between atoms: C_46  and  C_47 
REMARK   21  A    between atoms: C_47  and  O_49 
REMARK   22  A    between atoms: C_50  and  C_51 
REMARK   23  A    between atoms: C_51  and  C_52 
REMARK   24  A    between atoms: C_52  and  O_54 
REMARK   25  A    between atoms: C_55  and  C_56 
REMARK   26  A    between atoms: C_56  and  C_57 
REMARK   27  A    between atoms: C_57  and  C_58 
REMARK   28  A    between atoms: C_58  and  O_60 
ROOT
ATOM      1  O   UNK d   0      -9.883 -33.027  52.904  0.00  0.00    -0.650 OA
ATOM      2  C   UNK d   0      -9.625 -31.813  53.059  0.00  0.00     0.139 C 
ENDROOT
BRANCH   2   3
ATOM      3  O   UNK d   0      -8.415 -31.446  53.597  0.00  0.00    -0.776 OA
ATOM      4  H   UNK d   0      -8.196 -31.631  54.578  0.00  0.00     0.167 HD
ENDBRANCH   2   3
BRANCH   2   5
ATOM      5  C   UNK d   0     -10.622 -30.778  52.664  0.00  0.00     0.115 C 
BRANCH   5   6
ATOM      6  C   UNK d   0     -10.073 -29.928  51.551  0.00  0.00     0.052 C 
BRANCH   6   7
ATOM      7  C   UNK d   0     -10.506 -30.407  50.186  0.00  0.00    -0.020 A 
ATOM      8  C   UNK d   0     -11.555 -30.026  49.502  0.00  0.00    -0.011 A 
ATOM      9  C   UNK d   0     -11.565 -30.766  48.252  0.00  0.00     0.067 A 
ATOM     10  C   UNK d   0     -12.376 -30.810  47.107  0.00  0.00     0.062 C 
ATOM     11  N   UNK d   0     -10.488 -31.579  48.260  0.00  0.00    -0.248 NA
ATOM     12  C   UNK d   0     -12.069 -31.392  45.873  0.00  0.00     0.041 A 
ATOM     13  N   UNK d   0     -11.479 -32.563  45.567  0.00  0.00    -0.355 N 
ATOM     14  C   UNK d   0     -12.342 -30.673  44.695  0.00  0.00    -0.022 A 
ATOM     15  C   UNK d   0     -11.363 -32.602  44.226  0.00  0.00     0.042 A 
ATOM     16  H   UNK d   0     -11.168 -33.355  46.284  0.00  0.00     0.166 HD
ATOM     17  C   UNK d   0     -10.822 -33.595  43.385  0.00  0.00     0.062 C 
ATOM     18  C   UNK d   0     -11.893 -31.434  43.644  0.00  0.00    -0.013 A 
ATOM     19  C   UNK d   0      -9.655 -34.302  43.524  0.00  0.00     0.067 A 
ATOM     20  N   UNK d   0      -9.024 -34.202  44.697  0.00  0.00    -0.248 NA
ATOM     21  C   UNK d   0      -8.858 -35.178  42.682  0.00  0.00    -0.011 A 
ATOM     22  C   UNK d   0      -7.871 -34.948  44.682  0.00  0.00     0.066 A 
ATOM     23  C   UNK d   0      -7.133 -34.964  45.857  0.00  0.00     0.062 C 
ATOM     24  C   UNK d   0      -7.813 -35.549  43.365  0.00  0.00    -0.020 A 
ATOM     25  C   UNK d   0      -7.466 -34.383  47.090  0.00  0.00     0.041 A 
ATOM     26  N   UNK d   0      -8.039 -33.213  47.395  0.00  0.00    -0.355 N 
ATOM     27  C   UNK d   0      -7.196 -35.108  48.272  0.00  0.00    -0.022 A 
ATOM     28  C   UNK d   0      -8.147 -33.168  48.732  0.00  0.00     0.042 A 
ATOM     29  H   UNK d   0      -8.341 -32.413  46.674  0.00  0.00     0.166 HD
ATOM     30  C   UNK d   0      -8.674 -32.183  49.582  0.00  0.00     0.062 C 
ATOM     31  C   UNK d   0      -7.625 -34.346  49.315  0.00  0.00    -0.013 A 
ATOM     32  C   UNK d   0      -9.810 -31.411  49.395  0.00  0.00     0.066 A 
BRANCH   8  33
ATOM     33  C   UNK d   0     -12.564 -29.030  49.911  0.00  0.00     0.151 C 
BRANCH  33  34
ATOM     34  C   UNK d   0     -12.082 -27.643  49.781  0.00  0.00     0.143 C 
ATOM     35  O   UNK d   0     -11.884 -26.941  50.783  0.00  0.00    -0.650 OA
BRANCH  34  36
ATOM     36  O   UNK d   0     -11.851 -27.123  48.528  0.00  0.00    -0.776 OA
ATOM     37  H   UNK d   0     -10.908 -26.831  48.236  0.00  0.00     0.167 HD
ENDBRANCH  34  36
ENDBRANCH  33  34
ENDBRANCH   8  33
BRANCH  31  38
ATOM     38  C   UNK d   0      -7.555 -34.718  50.778  0.00  0.00     0.151 C 
BRANCH  38  39
ATOM     39  C   UNK d   0      -6.506 -34.017  51.487  0.00  0.00     0.143 C 
ATOM     40  O   UNK d   0      -5.404 -33.768  50.968  0.00  0.00    -0.650 OA
BRANCH  39  41
ATOM     41  O   UNK d   0      -6.726 -33.598  52.799  0.00  0.00    -0.776 OA
ATOM     42  H   UNK d   0      -6.280 -34.147  53.540  0.00  0.00     0.167 HD
ENDBRANCH  39  41
ENDBRANCH  38  39
ENDBRANCH  31  38
BRANCH  27  43
ATOM     43  C   UNK d   0      -6.558 -36.464  48.440  0.00  0.00     0.052 C 
BRANCH  43  44
ATOM     44  C   UNK d   0      -5.081 -36.400  48.658  0.00  0.00     0.115 C 
BRANCH  44  45
ATOM     45  C   UNK d   0      -4.752 -37.455  49.651  0.00  0.00     0.139 C 
ATOM     46  O   UNK d   0      -5.452 -37.527  50.691  0.00  0.00    -0.650 OA
BRANCH  45  47
ATOM     47  O   UNK d   0      -3.722 -38.353  49.474  0.00  0.00    -0.776 OA
ATOM     48  H   UNK d   0      -3.285 -38.530  48.555  0.00  0.00     0.167 HD
ENDBRANCH  45  47
ENDBRANCH  44  45
ENDBRANCH  43  44
ENDBRANCH  27  43
BRANCH  24  49
ATOM     49  C   UNK d   0      -6.759 -36.471  42.907  0.00  0.00     0.052 C 
BRANCH  49  50
ATOM     50  C   UNK d   0      -5.399 -35.856  43.113  0.00  0.00     0.115 C 
BRANCH  50  51
ATOM     51  C   UNK d   0      -4.305 -36.376  42.303  0.00  0.00     0.139 C 
ATOM     52  O   UNK d   0      -3.756 -37.479  42.536  0.00  0.00    -0.650 OA
BRANCH  51  53
ATOM     53  O   UNK d   0      -3.834 -35.636  41.229  0.00  0.00    -0.776 OA
ATOM     54  H   UNK d   0      -2.925 -35.855  40.863  0.00  0.00     0.167 HD
ENDBRANCH  51  53
ENDBRANCH  50  51
ENDBRANCH  49  50
ENDBRANCH  24  49
BRANCH  21  55
ATOM     55  C   UNK d   0      -9.225 -35.556  41.286  0.00  0.00     0.151 C 
BRANCH  55  56
ATOM     56  C   UNK d   0      -9.186 -34.403  40.374  0.00  0.00     0.143 C 
ATOM     57  O   UNK d   0     -10.186 -34.010  39.740  0.00  0.00    -0.650 OA
BRANCH  56  58
ATOM     58  O   UNK d   0      -7.973 -33.734  40.224  0.00  0.00    -0.776 OA
ATOM     59  H   UNK d   0      -7.607 -33.705  39.255  0.00  0.00     0.167 HD
ENDBRANCH  56  58
ENDBRANCH  55  56
ENDBRANCH  21  55
BRANCH  18  60
ATOM     60  C   UNK d   0     -11.978 -31.038  42.191  0.00  0.00     0.151 C 
BRANCH  60  61
ATOM     61  C   UNK d   0     -13.020 -31.891  41.601  0.00  0.00     0.143 C 
ATOM     62  O   UNK d   0     -14.111 -32.179  42.094  0.00  0.00    -0.650 OA
BRANCH  61  63
ATOM     63  O   UNK d   0     -12.712 -32.425  40.326  0.00  0.00    -0.776 OA
ATOM     64  H   UNK d   0     -13.432 -32.791  39.730  0.00  0.00     0.167 HD
ENDBRANCH  61  63
ENDBRANCH  60  61
ENDBRANCH  18  60
BRANCH  14  65
ATOM     65  C   UNK d   0     -13.076 -29.379  44.483  0.00  0.00     0.052 C 
BRANCH  65  66
ATOM     66  C   UNK d   0     -14.554 -29.545  44.468  0.00  0.00     0.115 C 
BRANCH  66  67
ATOM     67  C   UNK d   0     -15.294 -29.227  43.279  0.00  0.00     0.139 C 
ATOM     68  O   UNK d   0     -14.653 -28.772  42.261  0.00  0.00    -0.650 OA
BRANCH  67  69
ATOM     69  O   UNK d   0     -16.667 -29.349  43.071  0.00  0.00    -0.776 OA
ATOM     70  H   UNK d   0     -16.979 -29.281  42.091  0.00  0.00     0.167 HD
ENDBRANCH  67  69
ENDBRANCH  66  67
ENDBRANCH  65  66
ENDBRANCH  14  65
ENDBRANCH   6   7
ENDBRANCH   5   6
ENDBRANCH   2   5
TORSDOF 28
ENDMDL
MODEL 14
REMARK VINA RESULT:      -5.9     16.114     23.184
REMARK  28 active torsions:
REMARK  status: ('A' for Active; 'I' for Inactive)
REMARK    1  A    between atoms: C_2  and  O_3 
REMARK    2  A    between atoms: C_2  and  C_4 
REMARK    3  A    between atoms: C_4  and  C_5 
REMARK    4  A    between atoms: C_5  and  C_6 
REMARK    5  A    between atoms: C_7  and  C_8 
REMARK    6  A    between atoms: C_8  and  C_9 
REMARK    7  A    between atoms: C_9  and  O_11 
REMARK    8  A    between atoms: C_28  and  C_29 
REMARK    9  A    between atoms: C_29  and  C_30 
REMARK   10  A    between atoms: C_30  and  O_32 
REMARK   11  A    between atoms: C_33  and  C_34 
REMARK   12  A    between atoms: C_34  and  C_35 
REMARK   13  A    between atoms: C_35  and  C_36 
REMARK   14  A    between atoms: C_36  and  O_38 
REMARK   15  A    between atoms: C_39  and  C_40 
REMARK   16  A    between atoms: C_40  and  C_41 
REMARK   17  A    between atoms: C_41  and  C_42 
REMARK   18  A    between atoms: C_42  and  O_44 
REMARK   19  A    between atoms: C_45  and  C_46 
REMARK   20  A    between atoms: C_46  and  C_47 
REMARK   21  A    between atoms: C_47  and  O_49 
REMARK   22  A    between atoms: C_50  and  C_51 
REMARK   23  A    between atoms: C_51  and  C_52 
REMARK   24  A    between atoms: C_52  and  O_54 
REMARK   25  A    between atoms: C_55  and  C_56 
REMARK   26  A    between atoms: C_56  and  C_57 
REMARK   27  A    between atoms: C_57  and  C_58 
REMARK   28  A    between atoms: C_58  and  O_60 
ROOT
ATOM      1  O   UNK d   0     -13.255 -25.141  65.058  0.00  0.00    -0.650 OA
ATOM      2  C   UNK d   0     -13.024 -24.069  64.457  0.00  0.00     0.139 C 
ENDROOT
BRANCH   2   3
ATOM      3  O   UNK d   0     -11.857 -23.934  63.744  0.00  0.00    -0.776 OA
ATOM      4  H   UNK d   0     -10.954 -24.175  64.159  0.00  0.00     0.167 HD
ENDBRANCH   2   3
BRANCH   2   5
ATOM      5  C   UNK d   0     -14.007 -22.951  64.517  0.00  0.00     0.115 C 
BRANCH   5   6
ATOM      6  C   UNK d   0     -15.359 -23.425  64.056  0.00  0.00     0.052 C 
BRANCH   6   7
ATOM      7  C   UNK d   0     -15.864 -22.662  62.855  0.00  0.00    -0.020 A 
ATOM      8  C   UNK d   0     -15.579 -22.876  61.596  0.00  0.00    -0.011 A 
ATOM      9  C   UNK d   0     -16.291 -21.887  60.804  0.00  0.00     0.067 A 
ATOM     10  C   UNK d   0     -16.428 -21.591  59.439  0.00  0.00     0.062 C 
ATOM     11  N   UNK d   0     -16.981 -21.108  61.663  0.00  0.00    -0.248 NA
ATOM     12  C   UNK d   0     -17.387 -20.764  58.843  0.00  0.00     0.041 A 
ATOM     13  N   UNK d   0     -17.872 -19.563  59.210  0.00  0.00    -0.355 N 
ATOM     14  C   UNK d   0     -18.048 -21.214  57.686  0.00  0.00    -0.022 A 
ATOM     15  C   UNK d   0     -18.829 -19.241  58.319  0.00  0.00     0.042 A 
ATOM     16  H   UNK d   0     -17.531 -18.945  60.069  0.00  0.00     0.166 HD
ATOM     17  C   UNK d   0     -19.651 -18.100  58.233  0.00  0.00     0.062 C 
ATOM     18  C   UNK d   0     -18.969 -20.253  57.349  0.00  0.00    -0.013 A 
ATOM     19  C   UNK d   0     -20.336 -17.453  59.230  0.00  0.00     0.067 A 
ATOM     20  N   UNK d   0     -20.054 -17.808  60.486  0.00  0.00    -0.248 NA
ATOM     21  C   UNK d   0     -21.365 -16.429  59.296  0.00  0.00    -0.011 A 
ATOM     22  C   UNK d   0     -20.824 -17.091  61.368  0.00  0.00     0.066 A 
ATOM     23  C   UNK d   0     -20.605 -17.333  62.716  0.00  0.00     0.062 C 
ATOM     24  C   UNK d   0     -21.649 -16.224  60.550  0.00  0.00    -0.020 A 
ATOM     25  C   UNK d   0     -19.628 -18.158  63.294  0.00  0.00     0.041 A 
ATOM     26  N   UNK d   0     -19.156 -19.359  62.939  0.00  0.00    -0.355 N 
ATOM     27  C   UNK d   0     -18.961 -17.705  64.453  0.00  0.00    -0.022 A 
ATOM     28  C   UNK d   0     -18.207 -19.686  63.831  0.00  0.00     0.042 A 
ATOM     29  H   UNK d   0     -19.508 -19.984  62.081  0.00  0.00     0.166 HD
ATOM     30  C   UNK d   0     -17.389 -20.822  63.933  0.00  0.00     0.062 C 
ATOM     31  C   UNK d   0     -18.060 -18.665  64.799  0.00  0.00    -0.013 A 
ATOM     32  C   UNK d   0     -16.767 -21.523  62.912  0.00  0.00     0.066 A 
BRANCH   8  33
ATOM     33  C   UNK d   0     -14.692 -23.923  61.055  0.00  0.00     0.151 C 
BRANCH  33  34
ATOM     34  C   UNK d   0     -13.445 -23.377  60.489  0.00  0.00     0.143 C 
ATOM     35  O   UNK d   0     -13.217 -23.441  59.272  0.00  0.00    -0.650 OA
BRANCH  34  36
ATOM     36  O   UNK d   0     -12.523 -22.791  61.325  0.00  0.00    -0.776 OA
ATOM     37  H   UNK d   0     -12.088 -21.889  61.091  0.00  0.00     0.167 HD
ENDBRANCH  34  36
ENDBRANCH  33  34
ENDBRANCH   8  33
BRANCH  31  38
ATOM     38  C   UNK d   0     -17.107 -18.612  65.970  0.00  0.00     0.151 C 
BRANCH  38  39
ATOM     39  C   UNK d   0     -17.730 -18.997  67.219  0.00  0.00     0.143 C 
ATOM     40  O   UNK d   0     -17.696 -18.274  68.230  0.00  0.00    -0.650 OA
BRANCH  39  41
ATOM     41  O   UNK d   0     -18.396 -20.219  67.306  0.00  0.00    -0.776 OA
ATOM     42  H   UNK d   0     -18.350 -20.829  66.484  0.00  0.00     0.167 HD
ENDBRANCH  39  41
ENDBRANCH  38  39
ENDBRANCH  31  38
BRANCH  27  43
ATOM     43  C   UNK d   0     -19.147 -16.423  65.226  0.00  0.00     0.052 C 
BRANCH  43  44
ATOM     44  C   UNK d   0     -18.774 -15.204  64.447  0.00  0.00     0.115 C 
BRANCH  44  45
ATOM     45  C   UNK d   0     -18.659 -14.092  65.428  0.00  0.00     0.139 C 
ATOM     46  O   UNK d   0     -18.926 -12.929  65.037  0.00  0.00    -0.650 OA
BRANCH  45  47
ATOM     47  O   UNK d   0     -18.280 -14.288  66.738  0.00  0.00    -0.776 OA
ATOM     48  H   UNK d   0     -18.363 -15.200  67.215  0.00  0.00     0.167 HD
ENDBRANCH  45  47
ENDBRANCH  44  45
ENDBRANCH  43  44
ENDBRANCH  27  43
BRANCH  24  49
ATOM     49  C   UNK d   0     -22.612 -15.240  61.072  0.00  0.00     0.052 C 
BRANCH  49  50
ATOM     50  C   UNK d   0     -23.861 -15.932  61.554  0.00  0.00     0.115 C 
BRANCH  50  51
ATOM     51  C   UNK d   0     -25.125 -15.236  61.356  0.00  0.00     0.139 C 
ATOM     52  O   UNK d   0     -25.730 -15.232  60.258  0.00  0.00    -0.650 OA
BRANCH  51  53
ATOM     53  O   UNK d   0     -25.699 -14.543  62.411  0.00  0.00    -0.776 OA
ATOM     54  H   UNK d   0     -25.321 -13.643  62.650  0.00  0.00     0.167 HD
ENDBRANCH  51  53
ENDBRANCH  50  51
ENDBRANCH  49  50
ENDBRANCH  24  49
BRANCH  21  55
ATOM     55  C   UNK d   0     -21.953 -15.758  58.099  0.00  0.00     0.151 C 
BRANCH  55  56
ATOM     56  C   UNK d   0     -23.130 -16.477  57.587  0.00  0.00     0.143 C 
ATOM     57  O   UNK d   0     -23.044 -17.534  56.932  0.00  0.00    -0.650 OA
BRANCH  56  58
ATOM     58  O   UNK d   0     -24.387 -15.937  57.856  0.00  0.00    -0.776 OA
ATOM     59  H   UNK d   0     -25.109 -16.133  57.139  0.00  0.00     0.167 HD
ENDBRANCH  56  58
ENDBRANCH  55  56
ENDBRANCH  21  55
BRANCH  18  60
ATOM     60  C   UNK d   0     -19.907 -20.330  56.170  0.00  0.00     0.151 C 
BRANCH  60  61
ATOM     61  C   UNK d   0     -21.089 -21.067  56.643  0.00  0.00     0.143 C 
ATOM     62  O   UNK d   0     -21.895 -20.706  57.501  0.00  0.00    -0.650 OA
BRANCH  61  63
ATOM     63  O   UNK d   0     -21.301 -22.325  56.028  0.00  0.00    -0.776 OA
ATOM     64  H   UNK d   0     -20.529 -22.877  55.697  0.00  0.00     0.167 HD
ENDBRANCH  61  63
ENDBRANCH  60  61
ENDBRANCH  18  60
BRANCH  14  65
ATOM     65  C   UNK d   0     -17.811 -22.423  56.827  0.00  0.00     0.052 C 
BRANCH  65  66
ATOM     66  C   UNK d   0     -16.589 -22.309  55.987  0.00  0.00     0.115 C 
BRANCH  66  67
ATOM     67  C   UNK d   0     -15.634 -23.381  55.970  0.00  0.00     0.139 C 
ATOM     68  O   UNK d   0     -15.892 -24.422  55.261  0.00  0.00    -0.650 OA
BRANCH  67  69
ATOM     69  O   UNK d   0     -14.416 -23.450  56.646  0.00  0.00    -0.776 OA
ATOM     70  H   UNK d   0     -13.729 -24.115  56.264  0.00  0.00     0.167 HD
ENDBRANCH  67  69
ENDBRANCH  66  67
ENDBRANCH  65  66
ENDBRANCH  14  65
ENDBRANCH   6   7
ENDBRANCH   5   6
ENDBRANCH   2   5
TORSDOF 28
ENDMDL
MODEL 15
REMARK VINA RESULT:      -5.9      1.767      5.503
REMARK  28 active torsions:
REMARK  status: ('A' for Active; 'I' for Inactive)
REMARK    1  A    between atoms: C_2  and  O_3 
REMARK    2  A    between atoms: C_2  and  C_4 
REMARK    3  A    between atoms: C_4  and  C_5 
REMARK    4  A    between atoms: C_5  and  C_6 
REMARK    5  A    between atoms: C_7  and  C_8 
REMARK    6  A    between atoms: C_8  and  C_9 
REMARK    7  A    between atoms: C_9  and  O_11 
REMARK    8  A    between atoms: C_28  and  C_29 
REMARK    9  A    between atoms: C_29  and  C_30 
REMARK   10  A    between atoms: C_30  and  O_32 
REMARK   11  A    between atoms: C_33  and  C_34 
REMARK   12  A    between atoms: C_34  and  C_35 
REMARK   13  A    between atoms: C_35  and  C_36 
REMARK   14  A    between atoms: C_36  and  O_38 
REMARK   15  A    between atoms: C_39  and  C_40 
REMARK   16  A    between atoms: C_40  and  C_41 
REMARK   17  A    between atoms: C_41  and  C_42 
REMARK   18  A    between atoms: C_42  and  O_44 
REMARK   19  A    between atoms: C_45  and  C_46 
REMARK   20  A    between atoms: C_46  and  C_47 
REMARK   21  A    between atoms: C_47  and  O_49 
REMARK   22  A    between atoms: C_50  and  C_51 
REMARK   23  A    between atoms: C_51  and  C_52 
REMARK   24  A    between atoms: C_52  and  O_54 
REMARK   25  A    between atoms: C_55  and  C_56 
REMARK   26  A    between atoms: C_56  and  C_57 
REMARK   27  A    between atoms: C_57  and  C_58 
REMARK   28  A    between atoms: C_58  and  O_60 
ROOT
ATOM      1  O   UNK d   0      -8.971 -35.269  53.148  0.00  0.00    -0.650 OA
ATOM      2  C   UNK d   0      -8.202 -34.500  52.529  0.00  0.00     0.139 C 
ENDROOT
BRANCH   2   3
ATOM      3  O   UNK d   0      -6.844 -34.629  52.694  0.00  0.00    -0.776 OA
ATOM      4  H   UNK d   0      -6.189 -34.131  52.087  0.00  0.00     0.167 HD
ENDBRANCH   2   3
BRANCH   2   5
ATOM      5  C   UNK d   0      -8.759 -33.455  51.623  0.00  0.00     0.115 C 
BRANCH   5   6
ATOM      6  C   UNK d   0      -7.642 -32.684  50.975  0.00  0.00     0.052 C 
BRANCH   6   7
ATOM      7  C   UNK d   0      -7.515 -32.973  49.499  0.00  0.00    -0.020 A 
ATOM      8  C   UNK d   0      -6.534 -33.584  48.886  0.00  0.00    -0.011 A 
ATOM      9  C   UNK d   0      -6.849 -33.621  47.468  0.00  0.00     0.067 A 
ATOM     10  C   UNK d   0      -6.245 -34.134  46.309  0.00  0.00     0.062 C 
ATOM     11  N   UNK d   0      -8.039 -33.005  47.305  0.00  0.00    -0.248 NA
ATOM     12  C   UNK d   0      -6.837 -34.318  45.055  0.00  0.00     0.041 A 
ATOM     13  N   UNK d   0      -7.666 -33.532  44.342  0.00  0.00    -0.355 N 
ATOM     14  C   UNK d   0      -6.627 -35.532  44.375  0.00  0.00    -0.022 A 
ATOM     15  C   UNK d   0      -7.992 -34.218  43.230  0.00  0.00     0.042 A 
ATOM     16  H   UNK d   0      -7.997 -32.505  44.609  0.00  0.00     0.166 HD
ATOM     17  C   UNK d   0      -8.824 -33.864  42.149  0.00  0.00     0.062 C 
ATOM     18  C   UNK d   0      -7.360 -35.477  43.216  0.00  0.00    -0.013 A 
ATOM     19  C   UNK d   0     -10.061 -33.273  42.171  0.00  0.00     0.067 A 
ATOM     20  N   UNK d   0     -10.476 -32.780  43.340  0.00  0.00    -0.248 NA
ATOM     21  C   UNK d   0     -11.122 -33.035  41.206  0.00  0.00    -0.011 A 
ATOM     22  C   UNK d   0     -11.731 -32.238  43.211  0.00  0.00     0.066 A 
ATOM     23  C   UNK d   0     -12.270 -31.653  44.347  0.00  0.00     0.062 C 
ATOM     24  C   UNK d   0     -12.098 -32.432  41.822  0.00  0.00    -0.020 A 
ATOM     25  C   UNK d   0     -11.654 -31.466  45.594  0.00  0.00     0.041 A 
ATOM     26  N   UNK d   0     -10.842 -32.254  46.310  0.00  0.00    -0.355 N 
ATOM     27  C   UNK d   0     -11.862 -30.246  46.274  0.00  0.00    -0.022 A 
ATOM     28  C   UNK d   0     -10.522 -31.575  47.423  0.00  0.00     0.042 A 
ATOM     29  H   UNK d   0     -10.518 -33.290  46.045  0.00  0.00     0.166 HD
ATOM     30  C   UNK d   0      -9.704 -31.919  48.510  0.00  0.00     0.062 C 
ATOM     31  C   UNK d   0     -11.149 -30.307  47.432  0.00  0.00    -0.013 A 
ATOM     32  C   UNK d   0      -8.493 -32.592  48.490  0.00  0.00     0.066 A 
BRANCH   8  33
ATOM     33  C   UNK d   0      -5.314 -34.138  49.503  0.00  0.00     0.151 C 
BRANCH  33  34
ATOM     34  C   UNK d   0      -5.329 -35.611  49.572  0.00  0.00     0.143 C 
ATOM     35  O   UNK d   0      -5.858 -36.198  50.527  0.00  0.00    -0.650 OA
BRANCH  34  36
ATOM     36  O   UNK d   0      -4.744 -36.340  48.563  0.00  0.00    -0.776 OA
ATOM     37  H   UNK d   0      -5.143 -36.355  47.614  0.00  0.00     0.167 HD
ENDBRANCH  34  36
ENDBRANCH  33  34
ENDBRANCH   8  33
BRANCH  31  38
ATOM     38  C   UNK d   0     -11.056 -29.221  48.479  0.00  0.00     0.151 C 
BRANCH  38  39
ATOM     39  C   UNK d   0     -12.205 -29.191  49.359  0.00  0.00     0.143 C 
ATOM     40  O   UNK d   0     -12.908 -30.194  49.571  0.00  0.00    -0.650 OA
BRANCH  39  41
ATOM     41  O   UNK d   0     -12.547 -28.000  49.999  0.00  0.00    -0.776 OA
ATOM     42  H   UNK d   0     -11.903 -27.663  50.722  0.00  0.00     0.167 HD
ENDBRANCH  39  41
ENDBRANCH  38  39
ENDBRANCH  31  38
BRANCH  27  43
ATOM     43  C   UNK d   0     -12.696 -29.056  45.872  0.00  0.00     0.052 C 
BRANCH  43  44
ATOM     44  C   UNK d   0     -12.133 -28.305  44.709  0.00  0.00     0.115 C 
BRANCH  44  45
ATOM     45  C   UNK d   0     -11.129 -27.358  45.261  0.00  0.00     0.139 C 
ATOM     46  O   UNK d   0     -11.484 -26.599  46.197  0.00  0.00    -0.650 OA
BRANCH  45  47
ATOM     47  O   UNK d   0      -9.834 -27.286  44.795  0.00  0.00    -0.776 OA
ATOM     48  H   UNK d   0      -9.264 -26.427  44.855  0.00  0.00     0.167 HD
ENDBRANCH  45  47
ENDBRANCH  44  45
ENDBRANCH  43  44
ENDBRANCH  27  43
BRANCH  24  49
ATOM     49  C   UNK d   0     -13.356 -31.970  41.211  0.00  0.00     0.052 C 
BRANCH  49  50
ATOM     50  C   UNK d   0     -13.560 -30.501  41.480  0.00  0.00     0.115 C 
BRANCH  50  51
ATOM     51  C   UNK d   0     -13.082 -29.568  40.469  0.00  0.00     0.139 C 
ATOM     52  O   UNK d   0     -13.838 -29.055  39.610  0.00  0.00    -0.650 OA
BRANCH  51  53
ATOM     53  O   UNK d   0     -11.740 -29.220  40.435  0.00  0.00    -0.776 OA
ATOM     54  H   UNK d   0     -11.282 -29.008  41.304  0.00  0.00     0.167 HD
ENDBRANCH  51  53
ENDBRANCH  50  51
ENDBRANCH  49  50
ENDBRANCH  24  49
BRANCH  21  55
ATOM     55  C   UNK d   0     -11.047 -33.430  39.768  0.00  0.00     0.151 C 
BRANCH  55  56
ATOM     56  C   UNK d   0     -10.170 -32.538  38.996  0.00  0.00     0.143 C 
ATOM     57  O   UNK d   0      -9.038 -32.880  38.601  0.00  0.00    -0.650 OA
BRANCH  56  58
ATOM     58  O   UNK d   0     -10.641 -31.259  38.702  0.00  0.00    -0.776 OA
ATOM     59  H   UNK d   0     -10.918 -30.696  39.527  0.00  0.00     0.167 HD
ENDBRANCH  56  58
ENDBRANCH  55  56
ENDBRANCH  21  55
BRANCH  18  60
ATOM     60  C   UNK d   0      -7.432 -36.576  42.185  0.00  0.00     0.151 C 
BRANCH  60  61
ATOM     61  C   UNK d   0      -8.366 -37.576  42.725  0.00  0.00     0.143 C 
ATOM     62  O   UNK d   0      -9.557 -37.410  42.993  0.00  0.00    -0.650 OA
BRANCH  61  63
ATOM     63  O   UNK d   0      -7.811 -38.858  42.952  0.00  0.00    -0.776 OA
ATOM     64  H   UNK d   0      -7.214 -39.033  43.741  0.00  0.00     0.167 HD
ENDBRANCH  61  63
ENDBRANCH  60  61
ENDBRANCH  18  60
BRANCH  14  65
ATOM     65  C   UNK d   0      -5.717 -36.686  44.687  0.00  0.00     0.052 C 
BRANCH  65  66
ATOM     66  C   UNK d   0      -4.378 -36.559  44.050  0.00  0.00     0.115 C 
BRANCH  66  67
ATOM     67  C   UNK d   0      -4.009 -37.450  42.986  0.00  0.00     0.139 C 
ATOM     68  O   UNK d   0      -4.710 -38.512  42.803  0.00  0.00    -0.650 OA
BRANCH  67  69
ATOM     69  O   UNK d   0      -2.951 -37.314  42.088  0.00  0.00    -0.776 OA
ATOM     70  H   UNK d   0      -2.063 -37.753  42.372  0.00  0.00     0.167 HD
ENDBRANCH  67  69
ENDBRANCH  66  67
ENDBRANCH  65  66
ENDBRANCH  14  65
ENDBRANCH   6   7
ENDBRANCH   5   6
ENDBRANCH   2   5
TORSDOF 28
ENDMDL
MODEL 16
REMARK VINA RESULT:      -5.8     17.059     24.432
REMARK  28 active torsions:
REMARK  status: ('A' for Active; 'I' for Inactive)
REMARK    1  A    between atoms: C_2  and  O_3 
REMARK    2  A    between atoms: C_2  and  C_4 
REMARK    3  A    between atoms: C_4  and  C_5 
REMARK    4  A    between atoms: C_5  and  C_6 
REMARK    5  A    between atoms: C_7  and  C_8 
REMARK    6  A    between atoms: C_8  and  C_9 
REMARK    7  A    between atoms: C_9  and  O_11 
REMARK    8  A    between atoms: C_28  and  C_29 
REMARK    9  A    between atoms: C_29  and  C_30 
REMARK   10  A    between atoms: C_30  and  O_32 
REMARK   11  A    between atoms: C_33  and  C_34 
REMARK   12  A    between atoms: C_34  and  C_35 
REMARK   13  A    between atoms: C_35  and  C_36 
REMARK   14  A    between atoms: C_36  and  O_38 
REMARK   15  A    between atoms: C_39  and  C_40 
REMARK   16  A    between atoms: C_40  and  C_41 
REMARK   17  A    between atoms: C_41  and  C_42 
REMARK   18  A    between atoms: C_42  and  O_44 
REMARK   19  A    between atoms: C_45  and  C_46 
REMARK   20  A    between atoms: C_46  and  C_47 
REMARK   21  A    between atoms: C_47  and  O_49 
REMARK   22  A    between atoms: C_50  and  C_51 
REMARK   23  A    between atoms: C_51  and  C_52 
REMARK   24  A    between atoms: C_52  and  O_54 
REMARK   25  A    between atoms: C_55  and  C_56 
REMARK   26  A    between atoms: C_56  and  C_57 
REMARK   27  A    between atoms: C_57  and  C_58 
REMARK   28  A    between atoms: C_58  and  O_60 
ROOT
ATOM      1  O   UNK d   0     -19.625 -21.237  55.335  0.00  0.00    -0.650 OA
ATOM      2  C   UNK d   0     -18.418 -21.353  55.644  0.00  0.00     0.139 C 
ENDROOT
BRANCH   2   3
ATOM      3  O   UNK d   0     -17.462 -21.299  54.659  0.00  0.00    -0.776 OA
ATOM      4  H   UNK d   0     -17.623 -21.725  53.744  0.00  0.00     0.167 HD
ENDBRANCH   2   3
BRANCH   2   5
ATOM      5  C   UNK d   0     -18.026 -21.549  57.069  0.00  0.00     0.115 C 
BRANCH   5   6
ATOM      6  C   UNK d   0     -16.891 -20.628  57.425  0.00  0.00     0.052 C 
BRANCH   6   7
ATOM      7  C   UNK d   0     -17.114 -19.908  58.733  0.00  0.00    -0.020 A 
ATOM      8  C   UNK d   0     -17.576 -18.697  58.909  0.00  0.00    -0.011 A 
ATOM      9  C   UNK d   0     -17.607 -18.436  60.339  0.00  0.00     0.067 A 
ATOM     10  C   UNK d   0     -18.002 -17.373  61.166  0.00  0.00     0.062 C 
ATOM     11  N   UNK d   0     -17.141 -19.541  60.958  0.00  0.00    -0.248 NA
ATOM     12  C   UNK d   0     -18.219 -17.409  62.547  0.00  0.00     0.041 A 
ATOM     13  N   UNK d   0     -17.521 -17.994  63.539  0.00  0.00    -0.355 N 
ATOM     14  C   UNK d   0     -19.373 -16.799  63.071  0.00  0.00    -0.022 A 
ATOM     15  C   UNK d   0     -18.206 -17.778  64.678  0.00  0.00     0.042 A 
ATOM     16  H   UNK d   0     -16.552 -18.533  63.440  0.00  0.00     0.166 HD
ATOM     17  C   UNK d   0     -17.925 -18.169  66.002  0.00  0.00     0.062 C 
ATOM     18  C   UNK d   0     -19.374 -17.032  64.424  0.00  0.00    -0.013 A 
ATOM     19  C   UNK d   0     -17.497 -19.385  66.470  0.00  0.00     0.067 A 
ATOM     20  N   UNK d   0     -17.098 -20.277  65.559  0.00  0.00    -0.248 NA
ATOM     21  C   UNK d   0     -17.363 -20.015  67.773  0.00  0.00    -0.011 A 
ATOM     22  C   UNK d   0     -16.714 -21.444  66.172  0.00  0.00     0.066 A 
ATOM     23  C   UNK d   0     -16.239 -22.449  65.342  0.00  0.00     0.062 C 
ATOM     24  C   UNK d   0     -16.909 -21.221  67.591  0.00  0.00    -0.020 A 
ATOM     25  C   UNK d   0     -16.016 -22.387  63.957  0.00  0.00     0.041 A 
ATOM     26  N   UNK d   0     -16.718 -21.819  62.970  0.00  0.00    -0.355 N 
ATOM     27  C   UNK d   0     -14.855 -22.996  63.433  0.00  0.00    -0.022 A 
ATOM     28  C   UNK d   0     -16.041 -22.041  61.832  0.00  0.00     0.042 A 
ATOM     29  H   UNK d   0     -17.696 -21.288  63.070  0.00  0.00     0.166 HD
ATOM     30  C   UNK d   0     -16.314 -21.666  60.507  0.00  0.00     0.062 C 
ATOM     31  C   UNK d   0     -14.862 -22.781  62.089  0.00  0.00    -0.013 A 
ATOM     32  C   UNK d   0     -16.827 -20.464  60.047  0.00  0.00     0.066 A 
BRANCH   8  33
ATOM     33  C   UNK d   0     -17.992 -17.747  57.861  0.00  0.00     0.151 C 
BRANCH  33  34
ATOM     34  C   UNK d   0     -19.423 -17.858  57.525  0.00  0.00     0.143 C 
ATOM     35  O   UNK d   0     -20.295 -17.500  58.330  0.00  0.00    -0.650 OA
BRANCH  34  36
ATOM     36  O   UNK d   0     -19.792 -18.367  56.302  0.00  0.00    -0.776 OA
ATOM     37  H   UNK d   0     -19.698 -19.370  56.090  0.00  0.00     0.167 HD
ENDBRANCH  34  36
ENDBRANCH  33  34
ENDBRANCH   8  33
BRANCH  31  38
ATOM     38  C   UNK d   0     -13.808 -23.238  61.108  0.00  0.00     0.151 C 
BRANCH  38  39
ATOM     39  C   UNK d   0     -14.099 -24.535  60.534  0.00  0.00     0.143 C 
ATOM     40  O   UNK d   0     -15.019 -25.258  60.957  0.00  0.00    -0.650 OA
BRANCH  39  41
ATOM     41  O   UNK d   0     -13.330 -25.003  59.470  0.00  0.00    -0.776 OA
ATOM     42  H   UNK d   0     -13.279 -24.405  58.639  0.00  0.00     0.167 HD
ENDBRANCH  39  41
ENDBRANCH  38  39
ENDBRANCH  31  38
BRANCH  27  43
ATOM     43  C   UNK d   0     -13.767 -23.758  64.147  0.00  0.00     0.052 C 
BRANCH  43  44
ATOM     44  C   UNK d   0     -14.102 -25.197  64.371  0.00  0.00     0.115 C 
BRANCH  44  45
ATOM     45  C   UNK d   0     -13.550 -25.560  65.701  0.00  0.00     0.139 C 
ATOM     46  O   UNK d   0     -14.085 -26.509  66.326  0.00  0.00    -0.650 OA
BRANCH  45  47
ATOM     47  O   UNK d   0     -12.478 -24.905  66.270  0.00  0.00    -0.776 OA
ATOM     48  H   UNK d   0     -12.571 -24.003  66.764  0.00  0.00     0.167 HD
ENDBRANCH  45  47
ENDBRANCH  44  45
ENDBRANCH  43  44
ENDBRANCH  27  43
BRANCH  24  49
ATOM     49  C   UNK d   0     -16.589 -22.197  68.647  0.00  0.00     0.052 C 
BRANCH  49  50
ATOM     50  C   UNK d   0     -15.159 -22.036  69.094  0.00  0.00     0.115 C 
BRANCH  50  51
ATOM     51  C   UNK d   0     -14.168 -22.911  68.481  0.00  0.00     0.139 C 
ATOM     52  O   UNK d   0     -14.038 -24.116  68.803  0.00  0.00    -0.650 OA
BRANCH  51  53
ATOM     53  O   UNK d   0     -13.324 -22.411  67.502  0.00  0.00    -0.776 OA
ATOM     54  H   UNK d   0     -13.607 -22.496  66.541  0.00  0.00     0.167 HD
ENDBRANCH  51  53
ENDBRANCH  50  51
ENDBRANCH  49  50
ENDBRANCH  24  49
BRANCH  21  55
ATOM     55  C   UNK d   0     -17.699 -19.344  69.063  0.00  0.00     0.151 C 
BRANCH  55  56
ATOM     56  C   UNK d   0     -16.652 -18.399  69.482  0.00  0.00     0.143 C 
ATOM     57  O   UNK d   0     -15.637 -18.753  70.113  0.00  0.00    -0.650 OA
BRANCH  56  58
ATOM     58  O   UNK d   0     -16.820 -17.055  69.150  0.00  0.00    -0.776 OA
ATOM     59  H   UNK d   0     -17.795 -16.709  69.212  0.00  0.00     0.167 HD
ENDBRANCH  56  58
ENDBRANCH  55  56
ENDBRANCH  21  55
BRANCH  18  60
ATOM     60  C   UNK d   0     -20.440 -16.560  65.382  0.00  0.00     0.151 C 
BRANCH  60  61
ATOM     61  C   UNK d   0     -20.192 -15.125  65.587  0.00  0.00     0.143 C 
ATOM     62  O   UNK d   0     -20.999 -14.206  65.451  0.00  0.00    -0.650 OA
BRANCH  61  63
ATOM     63  O   UNK d   0     -18.874 -14.792  65.984  0.00  0.00    -0.776 OA
ATOM     64  H   UNK d   0     -18.156 -15.493  66.038  0.00  0.00     0.167 HD
ENDBRANCH  61  63
ENDBRANCH  60  61
ENDBRANCH  18  60
BRANCH  14  65
ATOM     65  C   UNK d   0     -20.413 -15.938  62.412  0.00  0.00     0.052 C 
BRANCH  65  66
ATOM     66  C   UNK d   0     -21.683 -16.664  62.142  0.00  0.00     0.115 C 
BRANCH  66  67
ATOM     67  C   UNK d   0     -22.934 -16.077  62.532  0.00  0.00     0.139 C 
ATOM     68  O   UNK d   0     -23.953 -16.236  61.763  0.00  0.00    -0.650 OA
BRANCH  67  69
ATOM     69  O   UNK d   0     -23.205 -15.327  63.676  0.00  0.00    -0.776 OA
ATOM     70  H   UNK d   0     -22.821 -14.371  63.687  0.00  0.00     0.167 HD
ENDBRANCH  67  69
ENDBRANCH  66  67
ENDBRANCH  65  66
ENDBRANCH  14  65
ENDBRANCH   6   7
ENDBRANCH   5   6
ENDBRANCH   2   5
TORSDOF 28
ENDMDL
MODEL 17
REMARK VINA RESULT:      -5.8     15.841     22.857
REMARK  28 active torsions:
REMARK  status: ('A' for Active; 'I' for Inactive)
REMARK    1  A    between atoms: C_2  and  O_3 
REMARK    2  A    between atoms: C_2  and  C_4 
REMARK    3  A    between atoms: C_4  and  C_5 
REMARK    4  A    between atoms: C_5  and  C_6 
REMARK    5  A    between atoms: C_7  and  C_8 
REMARK    6  A    between atoms: C_8  and  C_9 
REMARK    7  A    between atoms: C_9  and  O_11 
REMARK    8  A    between atoms: C_28  and  C_29 
REMARK    9  A    between atoms: C_29  and  C_30 
REMARK   10  A    between atoms: C_30  and  O_32 
REMARK   11  A    between atoms: C_33  and  C_34 
REMARK   12  A    between atoms: C_34  and  C_35 
REMARK   13  A    between atoms: C_35  and  C_36 
REMARK   14  A    between atoms: C_36  and  O_38 
REMARK   15  A    between atoms: C_39  and  C_40 
REMARK   16  A    between atoms: C_40  and  C_41 
REMARK   17  A    between atoms: C_41  and  C_42 
REMARK   18  A    between atoms: C_42  and  O_44 
REMARK   19  A    between atoms: C_45  and  C_46 
REMARK   20  A    between atoms: C_46  and  C_47 
REMARK   21  A    between atoms: C_47  and  O_49 
REMARK   22  A    between atoms: C_50  and  C_51 
REMARK   23  A    between atoms: C_51  and  C_52 
REMARK   24  A    between atoms: C_52  and  O_54 
REMARK   25  A    between atoms: C_55  and  C_56 
REMARK   26  A    between atoms: C_56  and  C_57 
REMARK   27  A    between atoms: C_57  and  C_58 
REMARK   28  A    between atoms: C_58  and  O_60 
ROOT
ATOM      1  O   UNK d   0     -21.630 -20.519  57.013  0.00  0.00    -0.650 OA
ATOM      2  C   UNK d   0     -20.848 -19.623  56.623  0.00  0.00     0.139 C 
ENDROOT
BRANCH   2   3
ATOM      3  O   UNK d   0     -21.321 -18.344  56.453  0.00  0.00    -0.776 OA
ATOM      4  H   UNK d   0     -21.797 -17.852  57.212  0.00  0.00     0.167 HD
ENDBRANCH   2   3
BRANCH   2   5
ATOM      5  C   UNK d   0     -19.419 -19.944  56.347  0.00  0.00     0.115 C 
BRANCH   5   6
ATOM      6  C   UNK d   0     -18.534 -18.834  56.843  0.00  0.00     0.052 C 
BRANCH   6   7
ATOM      7  C   UNK d   0     -18.391 -18.832  58.347  0.00  0.00    -0.020 A 
ATOM      8  C   UNK d   0     -18.768 -17.898  59.183  0.00  0.00    -0.011 A 
ATOM      9  C   UNK d   0     -18.416 -18.334  60.524  0.00  0.00     0.067 A 
ATOM     10  C   UNK d   0     -18.559 -17.826  61.824  0.00  0.00     0.062 C 
ATOM     11  N   UNK d   0     -17.824 -19.542  60.410  0.00  0.00    -0.248 NA
ATOM     12  C   UNK d   0     -18.405 -18.522  63.028  0.00  0.00     0.041 A 
ATOM     13  N   UNK d   0     -17.481 -19.419  63.421  0.00  0.00    -0.355 N 
ATOM     14  C   UNK d   0     -19.369 -18.355  64.039  0.00  0.00    -0.022 A 
ATOM     15  C   UNK d   0     -17.838 -19.831  64.652  0.00  0.00     0.042 A 
ATOM     16  H   UNK d   0     -16.583 -19.740  62.848  0.00  0.00     0.166 HD
ATOM     17  C   UNK d   0     -17.225 -20.757  65.519  0.00  0.00     0.062 C 
ATOM     18  C   UNK d   0     -19.017 -19.186  65.073  0.00  0.00    -0.013 A 
ATOM     19  C   UNK d   0     -16.711 -21.996  65.234  0.00  0.00     0.067 A 
ATOM     20  N   UNK d   0     -16.583 -22.315  63.943  0.00  0.00    -0.248 NA
ATOM     21  C   UNK d   0     -16.250 -23.139  66.004  0.00  0.00    -0.011 A 
ATOM     22  C   UNK d   0     -16.073 -23.584  63.814  0.00  0.00     0.066 A 
ATOM     23  C   UNK d   0     -15.852 -24.031  62.520  0.00  0.00     0.062 C 
ATOM     24  C   UNK d   0     -15.882 -24.066  65.168  0.00  0.00    -0.020 A 
ATOM     25  C   UNK d   0     -16.001 -23.311  61.324  0.00  0.00     0.041 A 
ATOM     26  N   UNK d   0     -16.928 -22.430  60.927  0.00  0.00    -0.355 N 
ATOM     27  C   UNK d   0     -15.030 -23.476  60.312  0.00  0.00    -0.022 A 
ATOM     28  C   UNK d   0     -16.578 -22.024  59.696  0.00  0.00     0.042 A 
ATOM     29  H   UNK d   0     -17.835 -22.117  61.500  0.00  0.00     0.166 HD
ATOM     30  C   UNK d   0     -17.184 -21.111  58.819  0.00  0.00     0.062 C 
ATOM     31  C   UNK d   0     -15.388 -22.665  59.279  0.00  0.00    -0.013 A 
ATOM     32  C   UNK d   0     -17.778 -19.897  59.126  0.00  0.00     0.066 A 
BRANCH   8  33
ATOM     33  C   UNK d   0     -19.428 -16.623  58.847  0.00  0.00     0.151 C 
BRANCH  33  34
ATOM     34  C   UNK d   0     -20.747 -16.477  59.488  0.00  0.00     0.143 C 
ATOM     35  O   UNK d   0     -21.689 -17.222  59.182  0.00  0.00    -0.650 OA
BRANCH  34  36
ATOM     36  O   UNK d   0     -20.933 -15.499  60.437  0.00  0.00    -0.776 OA
ATOM     37  H   UNK d   0     -20.436 -14.599  60.381  0.00  0.00     0.167 HD
ENDBRANCH  34  36
ENDBRANCH  33  34
ENDBRANCH   8  33
BRANCH  31  38
ATOM     38  C   UNK d   0     -14.638 -22.497  57.977  0.00  0.00     0.151 C 
BRANCH  38  39
ATOM     39  C   UNK d   0     -14.949 -23.530  57.013  0.00  0.00     0.143 C 
ATOM     40  O   UNK d   0     -14.094 -24.332  56.597  0.00  0.00    -0.650 OA
BRANCH  39  41
ATOM     41  O   UNK d   0     -16.250 -23.642  56.523  0.00  0.00    -0.776 OA
ATOM     42  H   UNK d   0     -16.555 -22.929  55.853  0.00  0.00     0.167 HD
ENDBRANCH  39  41
ENDBRANCH  38  39
ENDBRANCH  31  38
BRANCH  27  43
ATOM     43  C   UNK d   0     -13.807 -24.357  60.292  0.00  0.00     0.052 C 
BRANCH  43  44
ATOM     44  C   UNK d   0     -12.525 -23.589  60.264  0.00  0.00     0.115 C 
BRANCH  44  45
ATOM     45  C   UNK d   0     -12.144 -23.349  61.680  0.00  0.00     0.139 C 
ATOM     46  O   UNK d   0     -11.213 -24.038  62.167  0.00  0.00    -0.650 OA
BRANCH  45  47
ATOM     47  O   UNK d   0     -12.761 -22.405  62.471  0.00  0.00    -0.776 OA
ATOM     48  H   UNK d   0     -12.371 -22.088  63.373  0.00  0.00     0.167 HD
ENDBRANCH  45  47
ENDBRANCH  44  45
ENDBRANCH  43  44
ENDBRANCH  27  43
BRANCH  24  49
ATOM     49  C   UNK d   0     -15.314 -25.379  65.521  0.00  0.00     0.052 C 
BRANCH  49  50
ATOM     50  C   UNK d   0     -13.903 -25.496  65.002  0.00  0.00     0.115 C 
BRANCH  50  51
ATOM     51  C   UNK d   0     -12.866 -24.774  65.727  0.00  0.00     0.139 C 
ATOM     52  O   UNK d   0     -12.557 -25.042  66.912  0.00  0.00    -0.650 OA
BRANCH  51  53
ATOM     53  O   UNK d   0     -12.183 -23.742  65.101  0.00  0.00    -0.776 OA
ATOM     54  H   UNK d   0     -12.272 -22.815  65.478  0.00  0.00     0.167 HD
ENDBRANCH  51  53
ENDBRANCH  50  51
ENDBRANCH  49  50
ENDBRANCH  24  49
BRANCH  21  55
ATOM     55  C   UNK d   0     -16.222 -23.184  67.496  0.00  0.00     0.151 C 
BRANCH  55  56
ATOM     56  C   UNK d   0     -15.151 -22.343  68.053  0.00  0.00     0.143 C 
ATOM     57  O   UNK d   0     -15.314 -21.615  69.052  0.00  0.00    -0.650 OA
BRANCH  56  58
ATOM     58  O   UNK d   0     -13.908 -22.374  67.423  0.00  0.00    -0.776 OA
ATOM     59  H   UNK d   0     -13.418 -21.462  67.379  0.00  0.00     0.167 HD
ENDBRANCH  56  58
ENDBRANCH  55  56
ENDBRANCH  21  55
BRANCH  18  60
ATOM     60  C   UNK d   0     -19.784 -19.332  66.364  0.00  0.00     0.151 C 
BRANCH  60  61
ATOM     61  C   UNK d   0     -19.095 -18.475  67.342  0.00  0.00     0.143 C 
ATOM     62  O   UNK d   0     -19.025 -17.246  67.332  0.00  0.00    -0.650 OA
BRANCH  61  63
ATOM     63  O   UNK d   0     -18.452 -19.164  68.398  0.00  0.00    -0.776 OA
ATOM     64  H   UNK d   0     -18.811 -20.037  68.743  0.00  0.00     0.167 HD
ENDBRANCH  61  63
ENDBRANCH  60  61
ENDBRANCH  18  60
BRANCH  14  65
ATOM     65  C   UNK d   0     -20.530 -17.406  64.141  0.00  0.00     0.052 C 
BRANCH  65  66
ATOM     66  C   UNK d   0     -21.811 -18.003  63.677  0.00  0.00     0.115 C 
BRANCH  66  67
ATOM     67  C   UNK d   0     -22.875 -17.147  63.234  0.00  0.00     0.139 C 
ATOM     68  O   UNK d   0     -23.779 -16.803  64.081  0.00  0.00    -0.650 OA
BRANCH  67  69
ATOM     69  O   UNK d   0     -23.070 -16.618  61.958  0.00  0.00    -0.776 OA
ATOM     70  H   UNK d   0     -23.024 -17.293  61.181  0.00  0.00     0.167 HD
ENDBRANCH  67  69
ENDBRANCH  66  67
ENDBRANCH  65  66
ENDBRANCH  14  65
ENDBRANCH   6   7
ENDBRANCH   5   6
ENDBRANCH   2   5
TORSDOF 28
ENDMDL
MODEL 18
REMARK VINA RESULT:      -5.8     16.736     23.493
REMARK  28 active torsions:
REMARK  status: ('A' for Active; 'I' for Inactive)
REMARK    1  A    between atoms: C_2  and  O_3 
REMARK    2  A    between atoms: C_2  and  C_4 
REMARK    3  A    between atoms: C_4  and  C_5 
REMARK    4  A    between atoms: C_5  and  C_6 
REMARK    5  A    between atoms: C_7  and  C_8 
REMARK    6  A    between atoms: C_8  and  C_9 
REMARK    7  A    between atoms: C_9  and  O_11 
REMARK    8  A    between atoms: C_28  and  C_29 
REMARK    9  A    between atoms: C_29  and  C_30 
REMARK   10  A    between atoms: C_30  and  O_32 
REMARK   11  A    between atoms: C_33  and  C_34 
REMARK   12  A    between atoms: C_34  and  C_35 
REMARK   13  A    between atoms: C_35  and  C_36 
REMARK   14  A    between atoms: C_36  and  O_38 
REMARK   15  A    between atoms: C_39  and  C_40 
REMARK   16  A    between atoms: C_40  and  C_41 
REMARK   17  A    between atoms: C_41  and  C_42 
REMARK   18  A    between atoms: C_42  and  O_44 
REMARK   19  A    between atoms: C_45  and  C_46 
REMARK   20  A    between atoms: C_46  and  C_47 
REMARK   21  A    between atoms: C_47  and  O_49 
REMARK   22  A    between atoms: C_50  and  C_51 
REMARK   23  A    between atoms: C_51  and  C_52 
REMARK   24  A    between atoms: C_52  and  O_54 
REMARK   25  A    between atoms: C_55  and  C_56 
REMARK   26  A    between atoms: C_56  and  C_57 
REMARK   27  A    between atoms: C_57  and  C_58 
REMARK   28  A    between atoms: C_58  and  O_60 
ROOT
ATOM      1  O   UNK d   0     -12.601 -24.562  68.092  0.00  0.00    -0.650 OA
ATOM      2  C   UNK d   0     -13.777 -24.385  68.479  0.00  0.00     0.139 C 
ENDROOT
BRANCH   2   3
ATOM      3  O   UNK d   0     -14.355 -25.303  69.322  0.00  0.00    -0.776 OA
ATOM      4  H   UNK d   0     -15.248 -25.743  69.091  0.00  0.00     0.167 HD
ENDBRANCH   2   3
BRANCH   2   5
ATOM      5  C   UNK d   0     -14.542 -23.188  68.027  0.00  0.00     0.115 C 
BRANCH   5   6
ATOM      6  C   UNK d   0     -15.787 -23.614  67.298  0.00  0.00     0.052 C 
BRANCH   6   7
ATOM      7  C   UNK d   0     -15.914 -22.970  65.938  0.00  0.00    -0.020 A 
ATOM      8  C   UNK d   0     -15.309 -23.318  64.831  0.00  0.00    -0.011 A 
ATOM      9  C   UNK d   0     -15.735 -22.403  63.785  0.00  0.00     0.067 A 
ATOM     10  C   UNK d   0     -15.484 -22.247  62.413  0.00  0.00     0.062 C 
ATOM     11  N   UNK d   0     -16.595 -21.527  64.345  0.00  0.00    -0.248 NA
ATOM     12  C   UNK d   0     -16.208 -21.469  61.503  0.00  0.00     0.041 A 
ATOM     13  N   UNK d   0     -16.718 -20.227  61.608  0.00  0.00    -0.355 N 
ATOM     14  C   UNK d   0     -16.552 -22.023  60.256  0.00  0.00    -0.022 A 
ATOM     15  C   UNK d   0     -17.384 -19.982  60.463  0.00  0.00     0.042 A 
ATOM     16  H   UNK d   0     -16.594 -19.530  62.465  0.00  0.00     0.166 HD
ATOM     17  C   UNK d   0     -18.098 -18.840  60.048  0.00  0.00     0.062 C 
ATOM     18  C   UNK d   0     -17.302 -21.085  59.591  0.00  0.00    -0.013 A 
ATOM     19  C   UNK d   0     -18.997 -18.082  60.754  0.00  0.00     0.067 A 
ATOM     20  N   UNK d   0     -19.081 -18.310  62.068  0.00  0.00    -0.248 NA
ATOM     21  C   UNK d   0     -19.957 -17.037  60.440  0.00  0.00    -0.011 A 
ATOM     22  C   UNK d   0     -20.027 -17.492  62.634  0.00  0.00     0.066 A 
ATOM     23  C   UNK d   0     -20.192 -17.598  64.007  0.00  0.00     0.062 C 
ATOM     24  C   UNK d   0     -20.560 -16.699  61.543  0.00  0.00    -0.020 A 
ATOM     25  C   UNK d   0     -19.446 -18.376  64.905  0.00  0.00     0.041 A 
ATOM     26  N   UNK d   0     -18.951 -19.616  64.807  0.00  0.00    -0.355 N 
ATOM     27  C   UNK d   0     -19.097 -17.818  66.154  0.00  0.00    -0.022 A 
ATOM     28  C   UNK d   0     -18.294 -19.866  65.951  0.00  0.00     0.042 A 
ATOM     29  H   UNK d   0     -19.086 -20.319  63.949  0.00  0.00     0.166 HD
ATOM     30  C   UNK d   0     -17.587 -21.000  66.380  0.00  0.00     0.062 C 
ATOM     31  C   UNK d   0     -18.368 -18.753  66.822  0.00  0.00    -0.013 A 
ATOM     32  C   UNK d   0     -16.745 -21.814  65.639  0.00  0.00     0.066 A 
BRANCH   8  33
ATOM     33  C   UNK d   0     -14.358 -24.431  64.654  0.00  0.00     0.151 C 
BRANCH  33  34
ATOM     34  C   UNK d   0     -12.980 -23.970  64.404  0.00  0.00     0.143 C 
ATOM     35  O   UNK d   0     -12.507 -23.973  63.259  0.00  0.00    -0.650 OA
BRANCH  34  36
ATOM     36  O   UNK d   0     -12.213 -23.532  65.458  0.00  0.00    -0.776 OA
ATOM     37  H   UNK d   0     -12.412 -22.640  65.930  0.00  0.00     0.167 HD
ENDBRANCH  34  36
ENDBRANCH  33  34
ENDBRANCH   8  33
BRANCH  31  38
ATOM     38  C   UNK d   0     -17.765 -18.598  68.199  0.00  0.00     0.151 C 
BRANCH  38  39
ATOM     39  C   UNK d   0     -16.477 -17.937  68.176  0.00  0.00     0.143 C 
ATOM     40  O   UNK d   0     -15.494 -18.415  67.585  0.00  0.00    -0.650 OA
BRANCH  39  41
ATOM     41  O   UNK d   0     -16.320 -16.719  68.837  0.00  0.00    -0.776 OA
ATOM     42  H   UNK d   0     -16.900 -16.566  69.668  0.00  0.00     0.167 HD
ENDBRANCH  39  41
ENDBRANCH  38  39
ENDBRANCH  31  38
BRANCH  27  43
ATOM     43  C   UNK d   0     -19.426 -16.460  66.723  0.00  0.00     0.052 C 
BRANCH  43  44
ATOM     44  C   UNK d   0     -18.518 -15.379  66.233  0.00  0.00     0.115 C 
BRANCH  44  45
ATOM     45  C   UNK d   0     -19.374 -14.398  65.516  0.00  0.00     0.139 C 
ATOM     46  O   UNK d   0     -18.812 -13.440  64.930  0.00  0.00    -0.650 OA
BRANCH  45  47
ATOM     47  O   UNK d   0     -20.747 -14.502  65.464  0.00  0.00    -0.776 OA
ATOM     48  H   UNK d   0     -21.235 -15.179  64.855  0.00  0.00     0.167 HD
ENDBRANCH  45  47
ENDBRANCH  44  45
ENDBRANCH  43  44
ENDBRANCH  27  43
BRANCH  24  49
ATOM     49  C   UNK d   0     -21.582 -15.648  61.688  0.00  0.00     0.052 C 
BRANCH  49  50
ATOM     50  C   UNK d   0     -22.947 -16.196  61.359  0.00  0.00     0.115 C 
BRANCH  50  51
ATOM     51  C   UNK d   0     -23.783 -15.405  60.466  0.00  0.00     0.139 C 
ATOM     52  O   UNK d   0     -24.815 -14.810  60.856  0.00  0.00    -0.650 OA
BRANCH  51  53
ATOM     53  O   UNK d   0     -23.444 -15.295  59.126  0.00  0.00    -0.776 OA
ATOM     54  H   UNK d   0     -23.520 -14.393  58.689  0.00  0.00     0.167 HD
ENDBRANCH  51  53
ENDBRANCH  50  51
ENDBRANCH  49  50
ENDBRANCH  24  49
BRANCH  21  55
ATOM     55  C   UNK d   0     -20.169 -16.483  59.070  0.00  0.00     0.151 C 
BRANCH  55  56
ATOM     56  C   UNK d   0     -20.762 -17.475  58.159  0.00  0.00     0.143 C 
ATOM     57  O   UNK d   0     -20.121 -18.007  57.232  0.00  0.00    -0.650 OA
BRANCH  56  58
ATOM     58  O   UNK d   0     -22.097 -17.821  58.357  0.00  0.00    -0.776 OA
ATOM     59  H   UNK d   0     -22.656 -17.123  58.881  0.00  0.00     0.167 HD
ENDBRANCH  56  58
ENDBRANCH  55  56
ENDBRANCH  21  55
BRANCH  18  60
ATOM     60  C   UNK d   0     -17.890 -21.267  58.214  0.00  0.00     0.151 C 
BRANCH  60  61
ATOM     61  C   UNK d   0     -16.958 -20.606  57.287  0.00  0.00     0.143 C 
ATOM     62  O   UNK d   0     -15.886 -21.048  56.872  0.00  0.00    -0.650 OA
BRANCH  61  63
ATOM     63  O   UNK d   0     -17.362 -19.326  56.838  0.00  0.00    -0.776 OA
ATOM     64  H   UNK d   0     -17.509 -19.141  55.862  0.00  0.00     0.167 HD
ENDBRANCH  61  63
ENDBRANCH  60  61
ENDBRANCH  18  60
BRANCH  14  65
ATOM     65  C   UNK d   0     -16.147 -23.319  59.614  0.00  0.00     0.052 C 
BRANCH  65  66
ATOM     66  C   UNK d   0     -14.775 -23.280  59.041  0.00  0.00     0.115 C 
BRANCH  66  67
ATOM     67  C   UNK d   0     -13.850 -24.338  59.337  0.00  0.00     0.139 C 
ATOM     68  O   UNK d   0     -13.375 -25.029  58.362  0.00  0.00    -0.650 OA
BRANCH  67  69
ATOM     69  O   UNK d   0     -13.379 -24.733  60.589  0.00  0.00    -0.776 OA
ATOM     70  H   UNK d   0     -14.006 -24.545  61.384  0.00  0.00     0.167 HD
ENDBRANCH  67  69
ENDBRANCH  66  67
ENDBRANCH  65  66
ENDBRANCH  14  65
ENDBRANCH   6   7
ENDBRANCH   5   6
ENDBRANCH   2   5
TORSDOF 28
ENDMDL
MODEL 19
REMARK VINA RESULT:      -5.8     15.548     21.353
REMARK  28 active torsions:
REMARK  status: ('A' for Active; 'I' for Inactive)
REMARK    1  A    between atoms: C_2  and  O_3 
REMARK    2  A    between atoms: C_2  and  C_4 
REMARK    3  A    between atoms: C_4  and  C_5 
REMARK    4  A    between atoms: C_5  and  C_6 
REMARK    5  A    between atoms: C_7  and  C_8 
REMARK    6  A    between atoms: C_8  and  C_9 
REMARK    7  A    between atoms: C_9  and  O_11 
REMARK    8  A    between atoms: C_28  and  C_29 
REMARK    9  A    between atoms: C_29  and  C_30 
REMARK   10  A    between atoms: C_30  and  O_32 
REMARK   11  A    between atoms: C_33  and  C_34 
REMARK   12  A    between atoms: C_34  and  C_35 
REMARK   13  A    between atoms: C_35  and  C_36 
REMARK   14  A    between atoms: C_36  and  O_38 
REMARK   15  A    between atoms: C_39  and  C_40 
REMARK   16  A    between atoms: C_40  and  C_41 
REMARK   17  A    between atoms: C_41  and  C_42 
REMARK   18  A    between atoms: C_42  and  O_44 
REMARK   19  A    between atoms: C_45  and  C_46 
REMARK   20  A    between atoms: C_46  and  C_47 
REMARK   21  A    between atoms: C_47  and  O_49 
REMARK   22  A    between atoms: C_50  and  C_51 
REMARK   23  A    between atoms: C_51  and  C_52 
REMARK   24  A    between atoms: C_52  and  O_54 
REMARK   25  A    between atoms: C_55  and  C_56 
REMARK   26  A    between atoms: C_56  and  C_57 
REMARK   27  A    between atoms: C_57  and  C_58 
REMARK   28  A    between atoms: C_58  and  O_60 
ROOT
ATOM      1  O   UNK d   0     -28.617 -16.200  59.295  0.00  0.00    -0.650 OA
ATOM      2  C   UNK d   0     -27.496 -15.678  59.106  0.00  0.00     0.139 C 
ENDROOT
BRANCH   2   3
ATOM      3  O   UNK d   0     -27.267 -14.396  59.545  0.00  0.00    -0.776 OA
ATOM      4  H   UNK d   0     -27.182 -14.187  60.542  0.00  0.00     0.167 HD
ENDBRANCH   2   3
BRANCH   2   5
ATOM      5  C   UNK d   0     -26.422 -16.443  58.410  0.00  0.00     0.115 C 
BRANCH   5   6
ATOM      6  C   UNK d   0     -25.284 -16.714  59.356  0.00  0.00     0.052 C 
BRANCH   6   7
ATOM      7  C   UNK d   0     -24.117 -17.393  58.681  0.00  0.00    -0.020 A 
ATOM      8  C   UNK d   0     -23.043 -16.831  58.187  0.00  0.00    -0.011 A 
ATOM      9  C   UNK d   0     -22.206 -17.882  57.633  0.00  0.00     0.067 A 
ATOM     10  C   UNK d   0     -20.956 -17.951  56.999  0.00  0.00     0.062 C 
ATOM     11  N   UNK d   0     -22.850 -19.052  57.827  0.00  0.00    -0.248 NA
ATOM     12  C   UNK d   0     -20.179 -19.094  56.781  0.00  0.00     0.041 A 
ATOM     13  N   UNK d   0     -20.517 -20.332  56.371  0.00  0.00    -0.355 N 
ATOM     14  C   UNK d   0     -18.802 -19.046  57.066  0.00  0.00    -0.022 A 
ATOM     15  C   UNK d   0     -19.392 -21.071  56.396  0.00  0.00     0.042 A 
ATOM     16  H   UNK d   0     -21.528 -20.670  56.052  0.00  0.00     0.166 HD
ATOM     17  C   UNK d   0     -19.182 -22.424  56.064  0.00  0.00     0.062 C 
ATOM     18  C   UNK d   0     -18.296 -20.299  56.827  0.00  0.00    -0.013 A 
ATOM     19  C   UNK d   0     -19.932 -23.522  56.401  0.00  0.00     0.067 A 
ATOM     20  N   UNK d   0     -21.129 -23.292  56.946  0.00  0.00    -0.248 NA
ATOM     21  C   UNK d   0     -19.763 -24.964  56.333  0.00  0.00    -0.011 A 
ATOM     22  C   UNK d   0     -21.754 -24.478  57.242  0.00  0.00     0.066 A 
ATOM     23  C   UNK d   0     -23.028 -24.386  57.782  0.00  0.00     0.062 C 
ATOM     24  C   UNK d   0     -20.831 -25.518  56.831  0.00  0.00    -0.020 A 
ATOM     25  C   UNK d   0     -23.797 -23.228  57.981  0.00  0.00     0.041 A 
ATOM     26  N   UNK d   0     -23.463 -22.003  58.402  0.00  0.00    -0.355 N 
ATOM     27  C   UNK d   0     -25.178 -23.277  57.690  0.00  0.00    -0.022 A 
ATOM     28  C   UNK d   0     -24.585 -21.266  58.387  0.00  0.00     0.042 A 
ATOM     29  H   UNK d   0     -22.449 -21.667  58.733  0.00  0.00     0.166 HD
ATOM     30  C   UNK d   0     -24.811 -19.922  58.723  0.00  0.00     0.062 C 
ATOM     31  C   UNK d   0     -25.684 -22.039  57.944  0.00  0.00    -0.013 A 
ATOM     32  C   UNK d   0     -24.006 -18.826  58.454  0.00  0.00     0.066 A 
BRANCH   8  33
ATOM     33  C   UNK d   0     -22.722 -15.392  58.179  0.00  0.00     0.151 C 
BRANCH  33  34
ATOM     34  C   UNK d   0     -22.163 -14.924  59.460  0.00  0.00     0.143 C 
ATOM     35  O   UNK d   0     -22.817 -14.182  60.207  0.00  0.00    -0.650 OA
BRANCH  34  36
ATOM     36  O   UNK d   0     -20.898 -15.318  59.829  0.00  0.00    -0.776 OA
ATOM     37  H   UNK d   0     -20.750 -16.113  60.465  0.00  0.00     0.167 HD
ENDBRANCH  34  36
ENDBRANCH  33  34
ENDBRANCH   8  33
BRANCH  31  38
ATOM     38  C   UNK d   0     -27.121 -21.610  57.764  0.00  0.00     0.151 C 
BRANCH  38  39
ATOM     39  C   UNK d   0     -27.952 -21.940  58.903  0.00  0.00     0.143 C 
ATOM     40  O   UNK d   0     -27.549 -21.831  60.075  0.00  0.00    -0.650 OA
BRANCH  39  41
ATOM     41  O   UNK d   0     -29.254 -22.395  58.694  0.00  0.00    -0.776 OA
ATOM     42  H   UNK d   0     -29.503 -22.657  57.735  0.00  0.00     0.167 HD
ENDBRANCH  39  41
ENDBRANCH  38  39
ENDBRANCH  31  38
BRANCH  27  43
ATOM     43  C   UNK d   0     -26.013 -24.431  57.195  0.00  0.00     0.052 C 
BRANCH  43  44
ATOM     44  C   UNK d   0     -26.522 -25.307  58.293  0.00  0.00     0.115 C 
BRANCH  44  45
ATOM     45  C   UNK d   0     -27.941 -25.610  57.972  0.00  0.00     0.139 C 
ATOM     46  O   UNK d   0     -28.441 -26.663  58.439  0.00  0.00    -0.650 OA
BRANCH  45  47
ATOM     47  O   UNK d   0     -28.723 -24.786  57.192  0.00  0.00    -0.776 OA
ATOM     48  H   UNK d   0     -28.360 -23.930  56.742  0.00  0.00     0.167 HD
ENDBRANCH  45  47
ENDBRANCH  44  45
ENDBRANCH  43  44
ENDBRANCH  27  43
BRANCH  24  49
ATOM     49  C   UNK d   0     -21.097 -26.963  56.923  0.00  0.00     0.052 C 
BRANCH  49  50
ATOM     50  C   UNK d   0     -22.189 -27.358  55.961  0.00  0.00     0.115 C 
BRANCH  50  51
ATOM     51  C   UNK d   0     -23.446 -27.817  56.536  0.00  0.00     0.139 C 
ATOM     52  O   UNK d   0     -23.603 -27.992  57.767  0.00  0.00    -0.650 OA
BRANCH  51  53
ATOM     53  O   UNK d   0     -24.525 -28.078  55.705  0.00  0.00    -0.776 OA
ATOM     54  H   UNK d   0     -24.861 -29.023  55.646  0.00  0.00     0.167 HD
ENDBRANCH  51  53
ENDBRANCH  50  51
ENDBRANCH  49  50
ENDBRANCH  24  49
BRANCH  21  55
ATOM     55  C   UNK d   0     -18.553 -25.637  55.775  0.00  0.00     0.151 C 
BRANCH  55  56
ATOM     56  C   UNK d   0     -17.451 -25.686  56.747  0.00  0.00     0.143 C 
ATOM     57  O   UNK d   0     -16.294 -26.036  56.439  0.00  0.00    -0.650 OA
BRANCH  56  58
ATOM     58  O   UNK d   0     -17.729 -25.320  58.063  0.00  0.00    -0.776 OA
ATOM     59  H   UNK d   0     -17.095 -24.603  58.460  0.00  0.00     0.167 HD
ENDBRANCH  56  58
ENDBRANCH  55  56
ENDBRANCH  21  55
BRANCH  18  60
ATOM     60  C   UNK d   0     -16.853 -20.699  57.012  0.00  0.00     0.151 C 
BRANCH  60  61
ATOM     61  C   UNK d   0     -16.804 -21.465  58.266  0.00  0.00     0.143 C 
ATOM     62  O   UNK d   0     -16.563 -22.666  58.393  0.00  0.00    -0.650 OA
BRANCH  61  63
ATOM     63  O   UNK d   0     -17.066 -20.718  59.440  0.00  0.00    -0.776 OA
ATOM     64  H   UNK d   0     -16.917 -21.114  60.351  0.00  0.00     0.167 HD
ENDBRANCH  61  63
ENDBRANCH  60  61
ENDBRANCH  18  60
BRANCH  14  65
ATOM     65  C   UNK d   0     -17.920 -17.891  57.448  0.00  0.00     0.052 C 
BRANCH  65  66
ATOM     66  C   UNK d   0     -18.264 -17.309  58.773  0.00  0.00     0.115 C 
BRANCH  66  67
ATOM     67  C   UNK d   0     -17.223 -17.040  59.724  0.00  0.00     0.139 C 
ATOM     68  O   UNK d   0     -16.581 -18.033  60.228  0.00  0.00    -0.650 OA
BRANCH  67  69
ATOM     69  O   UNK d   0     -16.798 -15.798  60.195  0.00  0.00    -0.776 OA
ATOM     70  H   UNK d   0     -16.020 -15.817  60.869  0.00  0.00     0.167 HD
ENDBRANCH  67  69
ENDBRANCH  66  67
ENDBRANCH  65  66
ENDBRANCH  14  65
ENDBRANCH   6   7
ENDBRANCH   5   6
ENDBRANCH   2   5
TORSDOF 28
ENDMDL
MODEL 20
REMARK VINA RESULT:      -5.7      2.169      7.573
REMARK  28 active torsions:
REMARK  status: ('A' for Active; 'I' for Inactive)
REMARK    1  A    between atoms: C_2  and  O_3 
REMARK    2  A    between atoms: C_2  and  C_4 
REMARK    3  A    between atoms: C_4  and  C_5 
REMARK    4  A    between atoms: C_5  and  C_6 
REMARK    5  A    between atoms: C_7  and  C_8 
REMARK    6  A    between atoms: C_8  and  C_9 
REMARK    7  A    between atoms: C_9  and  O_11 
REMARK    8  A    between atoms: C_28  and  C_29 
REMARK    9  A    between atoms: C_29  and  C_30 
REMARK   10  A    between atoms: C_30  and  O_32 
REMARK   11  A    between atoms: C_33  and  C_34 
REMARK   12  A    between atoms: C_34  and  C_35 
REMARK   13  A    between atoms: C_35  and  C_36 
REMARK   14  A    between atoms: C_36  and  O_38 
REMARK   15  A    between atoms: C_39  and  C_40 
REMARK   16  A    between atoms: C_40  and  C_41 
REMARK   17  A    between atoms: C_41  and  C_42 
REMARK   18  A    between atoms: C_42  and  O_44 
REMARK   19  A    between atoms: C_45  and  C_46 
REMARK   20  A    between atoms: C_46  and  C_47 
REMARK   21  A    between atoms: C_47  and  O_49 
REMARK   22  A    between atoms: C_50  and  C_51 
REMARK   23  A    between atoms: C_51  and  C_52 
REMARK   24  A    between atoms: C_52  and  O_54 
REMARK   25  A    between atoms: C_55  and  C_56 
REMARK   26  A    between atoms: C_56  and  C_57 
REMARK   27  A    between atoms: C_57  and  C_58 
REMARK   28  A    between atoms: C_58  and  O_60 
ROOT
ATOM      1  O   UNK d   0     -14.619 -29.512  44.798  0.00  0.00    -0.650 OA
ATOM      2  C   UNK d   0     -14.641 -30.704  44.417  0.00  0.00     0.139 C 
ENDROOT
BRANCH   2   3
ATOM      3  O   UNK d   0     -15.708 -31.156  43.680  0.00  0.00    -0.776 OA
ATOM      4  H   UNK d   0     -16.098 -32.088  43.832  0.00  0.00     0.167 HD
ENDBRANCH   2   3
BRANCH   2   5
ATOM      5  C   UNK d   0     -13.518 -31.621  44.764  0.00  0.00     0.115 C 
BRANCH   5   6
ATOM      6  C   UNK d   0     -12.226 -30.853  44.839  0.00  0.00     0.052 C 
BRANCH   6   7
ATOM      7  C   UNK d   0     -11.365 -31.275  46.004  0.00  0.00    -0.020 A 
ATOM      8  C   UNK d   0     -11.333 -30.753  47.204  0.00  0.00    -0.011 A 
ATOM      9  C   UNK d   0     -10.345 -31.484  47.981  0.00  0.00     0.067 A 
ATOM     10  C   UNK d   0      -9.859 -31.442  49.297  0.00  0.00     0.062 C 
ATOM     11  N   UNK d   0      -9.821 -32.430  47.174  0.00  0.00    -0.248 NA
ATOM     12  C   UNK d   0      -9.097 -32.417  49.950  0.00  0.00     0.041 A 
ATOM     13  N   UNK d   0      -8.052 -33.155  49.529  0.00  0.00    -0.355 N 
ATOM     14  C   UNK d   0      -9.449 -32.791  51.260  0.00  0.00    -0.022 A 
ATOM     15  C   UNK d   0      -7.737 -33.992  50.535  0.00  0.00     0.042 A 
ATOM     16  H   UNK d   0      -7.536 -33.072  48.548  0.00  0.00     0.166 HD
ATOM     17  C   UNK d   0      -6.728 -34.972  50.625  0.00  0.00     0.062 C 
ATOM     18  C   UNK d   0      -8.591 -33.794  51.637  0.00  0.00    -0.013 A 
ATOM     19  C   UNK d   0      -6.355 -35.913  49.700  0.00  0.00     0.067 A 
ATOM     20  N   UNK d   0      -6.859 -35.786  48.470  0.00  0.00    -0.248 NA
ATOM     21  C   UNK d   0      -5.514 -37.099  49.697  0.00  0.00    -0.011 A 
ATOM     22  C   UNK d   0      -6.411 -36.803  47.664  0.00  0.00     0.066 A 
ATOM     23  C   UNK d   0      -6.830 -36.772  46.342  0.00  0.00     0.062 C 
ATOM     24  C   UNK d   0      -5.555 -37.618  48.504  0.00  0.00    -0.020 A 
ATOM     25  C   UNK d   0      -7.584 -35.776  45.702  0.00  0.00     0.041 A 
ATOM     26  N   UNK d   0      -8.632 -35.054  46.115  0.00  0.00    -0.355 N 
ATOM     27  C   UNK d   0      -7.228 -35.399  44.389  0.00  0.00    -0.022 A 
ATOM     28  C   UNK d   0      -8.954 -34.224  45.110  0.00  0.00     0.042 A 
ATOM     29  H   UNK d   0      -9.157 -35.146  47.098  0.00  0.00     0.166 HD
ATOM     30  C   UNK d   0      -9.961 -33.251  45.003  0.00  0.00     0.062 C 
ATOM     31  C   UNK d   0      -8.089 -34.416  44.007  0.00  0.00    -0.013 A 
ATOM     32  C   UNK d   0     -10.392 -32.358  45.971  0.00  0.00     0.066 A 
BRANCH   8  33
ATOM     33  C   UNK d   0     -12.140 -29.623  47.699  0.00  0.00     0.151 C 
BRANCH  33  34
ATOM     34  C   UNK d   0     -11.386 -28.357  47.737  0.00  0.00     0.143 C 
ATOM     35  O   UNK d   0     -11.040 -27.790  46.691  0.00  0.00    -0.650 OA
BRANCH  34  36
ATOM     36  O   UNK d   0     -11.061 -27.801  48.953  0.00  0.00    -0.776 OA
ATOM     37  H   UNK d   0     -10.887 -26.791  49.049  0.00  0.00     0.167 HD
ENDBRANCH  34  36
ENDBRANCH  33  34
ENDBRANCH   8  33
BRANCH  31  38
ATOM     38  C   UNK d   0      -8.085 -33.693  42.681  0.00  0.00     0.151 C 
BRANCH  38  39
ATOM     39  C   UNK d   0      -8.798 -34.412  41.647  0.00  0.00     0.143 C 
ATOM     40  O   UNK d   0     -10.015 -34.657  41.725  0.00  0.00    -0.650 OA
BRANCH  39  41
ATOM     41  O   UNK d   0      -8.110 -34.852  40.516  0.00  0.00    -0.776 OA
ATOM     42  H   UNK d   0      -7.086 -34.808  40.553  0.00  0.00     0.167 HD
ENDBRANCH  39  41
ENDBRANCH  38  39
ENDBRANCH  31  38
BRANCH  27  43
ATOM     43  C   UNK d   0      -6.126 -35.928  43.505  0.00  0.00     0.052 C 
BRANCH  43  44
ATOM     44  C   UNK d   0      -4.784 -35.912  44.161  0.00  0.00     0.115 C 
BRANCH  44  45
ATOM     45  C   UNK d   0      -3.839 -36.556  43.211  0.00  0.00     0.139 C 
ATOM     46  O   UNK d   0      -2.769 -35.955  42.943  0.00  0.00    -0.650 OA
BRANCH  45  47
ATOM     47  O   UNK d   0      -4.088 -37.776  42.622  0.00  0.00    -0.776 OA
ATOM     48  H   UNK d   0      -4.497 -37.871  41.679  0.00  0.00     0.167 HD
ENDBRANCH  45  47
ENDBRANCH  44  45
ENDBRANCH  43  44
ENDBRANCH  27  43
BRANCH  24  49
ATOM     49  C   UNK d   0      -4.817 -38.808  48.049  0.00  0.00     0.052 C 
BRANCH  49  50
ATOM     50  C   UNK d   0      -5.759 -39.969  47.858  0.00  0.00     0.115 C 
BRANCH  50  51
ATOM     51  C   UNK d   0      -5.567 -41.129  48.717  0.00  0.00     0.139 C 
ATOM     52  O   UNK d   0      -6.477 -41.961  48.943  0.00  0.00    -0.650 OA
BRANCH  51  53
ATOM     53  O   UNK d   0      -4.337 -41.341  49.319  0.00  0.00    -0.776 OA
ATOM     54  H   UNK d   0      -3.516 -40.985  48.862  0.00  0.00     0.167 HD
ENDBRANCH  51  53
ENDBRANCH  50  51
ENDBRANCH  49  50
ENDBRANCH  24  49
BRANCH  21  55
ATOM     55  C   UNK d   0      -4.755 -37.588  50.886  0.00  0.00     0.151 C 
BRANCH  55  56
ATOM     56  C   UNK d   0      -5.546 -38.525  51.698  0.00  0.00     0.143 C 
ATOM     57  O   UNK d   0      -6.596 -38.193  52.282  0.00  0.00    -0.650 OA
BRANCH  56  58
ATOM     58  O   UNK d   0      -5.087 -39.837  51.807  0.00  0.00    -0.776 OA
ATOM     59  H   UNK d   0      -4.224 -40.043  51.272  0.00  0.00     0.167 HD
ENDBRANCH  56  58
ENDBRANCH  55  56
ENDBRANCH  21  55
BRANCH  18  60
ATOM     60  C   UNK d   0      -8.616 -34.497  52.972  0.00  0.00     0.151 C 
BRANCH  60  61
ATOM     61  C   UNK d   0      -9.316 -35.770  52.744  0.00  0.00     0.143 C 
ATOM     62  O   UNK d   0     -10.293 -35.961  52.019  0.00  0.00    -0.650 OA
BRANCH  61  63
ATOM     63  O   UNK d   0      -8.788 -36.881  53.445  0.00  0.00    -0.776 OA
ATOM     64  H   UNK d   0      -7.980 -37.373  53.105  0.00  0.00     0.167 HD
ENDBRANCH  61  63
ENDBRANCH  60  61
ENDBRANCH  18  60
BRANCH  14  65
ATOM     65  C   UNK d   0     -10.459 -32.210  52.208  0.00  0.00     0.052 C 
BRANCH  65  66
ATOM     66  C   UNK d   0      -9.966 -30.996  52.912  0.00  0.00     0.115 C 
BRANCH  66  67
ATOM     67  C   UNK d   0     -10.711 -29.771  52.825  0.00  0.00     0.139 C 
ATOM     68  O   UNK d   0     -10.718 -29.135  51.708  0.00  0.00    -0.650 OA
BRANCH  67  69
ATOM     69  O   UNK d   0     -11.457 -29.154  53.829  0.00  0.00    -0.776 OA
ATOM     70  H   UNK d   0     -11.051 -28.293  54.223  0.00  0.00     0.167 HD
ENDBRANCH  67  69
ENDBRANCH  66  67
ENDBRANCH  65  66
ENDBRANCH  14  65
ENDBRANCH   6   7
ENDBRANCH   5   6
ENDBRANCH   2   5
TORSDOF 28
ENDMDL
