MODEL 1
REMARK VINA RESULT:     -10.8      0.000      0.000
REMARK  16 active torsions:
REMARK  status: ('A' for Active; 'I' for Inactive)
REMARK    1  A    between atoms: C_6  and  C_7 
REMARK    2  A    between atoms: C_7  and  C_8 
REMARK    3  A    between atoms: C_8  and  C_9 
REMARK    4  A    between atoms: C_9  and  O_11 
REMARK    5  A    between atoms: C_16  and  C_17 
REMARK    6  A    between atoms: C_17  and  C_18 
REMARK    7  A    between atoms: C_18  and  C_19 
REMARK    8  A    between atoms: C_19  and  O_21 
REMARK    9  A    between atoms: C_28  and  C_29 
REMARK   10  A    between atoms: C_29  and  C_30 
REMARK   11  A    between atoms: C_30  and  C_31 
REMARK   12  A    between atoms: C_31  and  O_33 
REMARK   13  A    between atoms: C_42  and  C_43 
REMARK   14  A    between atoms: C_43  and  C_44 
REMARK   15  A    between atoms: C_44  and  C_45 
REMARK   16  A    between atoms: C_45  and  O_47 
ROOT
HETATM    1  C   UNK     0       1.872   5.011  -6.545  0.00  0.00     0.051 C 
HETATM    2  C   UNK     0       1.032   4.705  -7.769  0.00  0.00    -0.031 A 
HETATM    3  C   UNK     0       1.160   3.676  -8.689  0.00  0.00     0.021 A 
HETATM    4  N   UNK     0       0.205   3.814  -9.640  0.00  0.00    -0.361 N 
HETATM    5  C   UNK     0      -0.533   4.903  -9.341  0.00  0.00     0.022 A 
HETATM    6  C   UNK     0      -0.041   5.486  -8.178  0.00  0.00    -0.027 A 
HETATM    7  C   UNK     0      -1.758   5.437 -10.015  0.00  0.00     0.115 C 
HETATM    8  C   UNK     0      -2.802   4.418 -10.437  0.00  0.00     0.021 A 
HETATM    9  N   UNK     0      -3.164   3.284  -9.816  0.00  0.00    -0.361 N 
HETATM   10  C   UNK     0      -4.061   2.646 -10.597  0.00  0.00     0.022 A 
HETATM   11  C   UNK     0      -4.290   3.393 -11.749  0.00  0.00    -0.027 A 
HETATM   12  C   UNK     0      -3.501   4.511 -11.654  0.00  0.00    -0.031 A 
HETATM   13  C   UNK     0      -3.426   5.617 -12.682  0.00  0.00     0.051 C 
HETATM   14  C   UNK     0      -4.694   1.287 -10.316  0.00  0.00     0.115 C 
HETATM   15  C   UNK     0      -3.691   0.149 -10.216  0.00  0.00     0.021 A 
HETATM   16  N   UNK     0      -2.655   0.039  -9.365  0.00  0.00    -0.361 N 
HETATM   17  C   UNK     0      -1.973  -1.074  -9.644  0.00  0.00     0.022 A 
HETATM   18  C   UNK     0      -2.600  -1.726 -10.724  0.00  0.00    -0.027 A 
HETATM   19  C   UNK     0      -3.676  -0.951 -11.072  0.00  0.00    -0.031 A 
HETATM   20  C   UNK     0      -4.653  -1.311 -12.176  0.00  0.00     0.051 C 
HETATM   21  C   UNK     0      -0.698  -1.612  -9.034  0.00  0.00     0.115 C 
HETATM   22  C   UNK     0       0.330  -0.608  -8.569  0.00  0.00     0.022 A 
HETATM   23  N   UNK     0       0.708   0.531  -9.165  0.00  0.00    -0.361 N 
HETATM   24  C   UNK     0       1.542   1.188  -8.334  0.00  0.00     0.021 A 
HETATM   25  C   UNK     0       1.714   0.449  -7.179  0.00  0.00    -0.031 A 
HETATM   26  C   UNK     0       2.584   0.750  -5.976  0.00  0.00     0.051 C 
HETATM   27  C   UNK     0       0.949  -0.705  -7.306  0.00  0.00    -0.027 A 
HETATM   28  C   UNK     0       2.156   2.563  -8.530  0.00  0.00     0.115 C 
HETATM   29  H   UNK     0       0.085   3.163 -10.537  0.00  0.00     0.165 HD
HETATM   30  H   UNK     0      -2.825   2.957  -8.803  0.00  0.00     0.165 HD
HETATM   31  H   UNK     0      -2.426   0.737  -8.517  0.00  0.00     0.165 HD
HETATM   32  H   UNK     0       0.422   0.861 -10.197  0.00  0.00     0.165 HD
ENDROOT
BRANCH   6  33
HETATM   33  C   UNK     0      -0.505   6.715  -7.437  0.00  0.00     0.051 C 
BRANCH  33  34
HETATM   34  C   UNK     0      -1.541   6.354  -6.399  0.00  0.00     0.114 C 
BRANCH  34  35
HETATM   35  C   UNK     0      -2.556   7.445  -6.382  0.00  0.00     0.139 C 
HETATM   36  O   UNK     0      -3.311   7.628  -7.380  0.00  0.00    -0.650 OA
BRANCH  35  37
HETATM   37  O   UNK     0      -2.724   8.296  -5.296  0.00  0.00    -0.776 OA
HETATM   38  H   UNK     0      -1.990   8.909  -4.978  0.00  0.00     0.167 HD
ENDBRANCH  35  37
ENDBRANCH  34  35
ENDBRANCH  33  34
ENDBRANCH   6  33
BRANCH  27  39
HETATM   39  C   UNK     0       0.936  -1.785  -6.283  0.00  0.00     0.051 C 
BRANCH  39  40
HETATM   40  C   UNK     0      -0.345  -2.405  -5.945  0.00  0.00     0.114 C 
BRANCH  40  41
HETATM   41  C   UNK     0      -0.559  -3.832  -6.038  0.00  0.00     0.139 C 
HETATM   42  O   UNK     0      -1.190  -4.485  -5.197  0.00  0.00    -0.650 OA
BRANCH  41  43
HETATM   43  O   UNK     0      -0.022  -4.540  -7.151  0.00  0.00    -0.776 OA
HETATM   44  H   UNK     0       0.742  -4.067  -7.619  0.00  0.00     0.167 HD
ENDBRANCH  41  43
ENDBRANCH  40  41
ENDBRANCH  39  40
ENDBRANCH  27  39
BRANCH  11  45
HETATM   45  C   UNK     0      -5.211   3.090 -12.900  0.00  0.00     0.051 C 
BRANCH  45  46
HETATM   46  C   UNK     0      -4.590   2.273 -13.974  0.00  0.00     0.114 C 
BRANCH  46  47
HETATM   47  C   UNK     0      -5.550   2.238 -15.114  0.00  0.00     0.139 C 
HETATM   48  O   UNK     0      -6.720   2.595 -14.914  0.00  0.00    -0.650 OA
BRANCH  47  49
HETATM   49  O   UNK     0      -5.149   1.819 -16.357  0.00  0.00    -0.776 OA
HETATM   50  H   UNK     0      -4.852   0.853 -16.537  0.00  0.00     0.167 HD
ENDBRANCH  47  49
ENDBRANCH  46  47
ENDBRANCH  45  46
ENDBRANCH  11  45
BRANCH  18  51
HETATM   51  C   UNK     0      -2.209  -3.027 -11.374  0.00  0.00     0.051 C 
BRANCH  51  52
HETATM   52  C   UNK     0      -3.328  -4.011 -11.068  0.00  0.00     0.114 C 
BRANCH  52  53
HETATM   53  C   UNK     0      -2.953  -4.954  -9.997  0.00  0.00     0.139 C 
HETATM   54  O   UNK     0      -1.946  -4.739  -9.304  0.00  0.00    -0.650 OA
BRANCH  53  55
HETATM   55  O   UNK     0      -3.722  -6.071  -9.774  0.00  0.00    -0.776 OA
HETATM   56  H   UNK     0      -4.713  -6.111  -9.798  0.00  0.00     0.167 HD
ENDBRANCH  53  55
ENDBRANCH  52  53
ENDBRANCH  51  52
ENDBRANCH  18  51
TORSDOF 16
ENDMDL
MODEL 2
REMARK VINA RESULT:     -10.4      2.914      8.048
REMARK  16 active torsions:
REMARK  status: ('A' for Active; 'I' for Inactive)
REMARK    1  A    between atoms: C_6  and  C_7 
REMARK    2  A    between atoms: C_7  and  C_8 
REMARK    3  A    between atoms: C_8  and  C_9 
REMARK    4  A    between atoms: C_9  and  O_11 
REMARK    5  A    between atoms: C_16  and  C_17 
REMARK    6  A    between atoms: C_17  and  C_18 
REMARK    7  A    between atoms: C_18  and  C_19 
REMARK    8  A    between atoms: C_19  and  O_21 
REMARK    9  A    between atoms: C_28  and  C_29 
REMARK   10  A    between atoms: C_29  and  C_30 
REMARK   11  A    between atoms: C_30  and  C_31 
REMARK   12  A    between atoms: C_31  and  O_33 
REMARK   13  A    between atoms: C_42  and  C_43 
REMARK   14  A    between atoms: C_43  and  C_44 
REMARK   15  A    between atoms: C_44  and  C_45 
REMARK   16  A    between atoms: C_45  and  O_47 
ROOT
HETATM    1  C   UNK     0       1.654   5.229  -7.119  0.00  0.00     0.051 C 
HETATM    2  C   UNK     0       0.787   4.130  -7.700  0.00  0.00    -0.031 A 
HETATM    3  C   UNK     0      -0.585   4.100  -7.891  0.00  0.00     0.021 A 
HETATM    4  N   UNK     0      -0.932   2.900  -8.412  0.00  0.00    -0.361 N 
HETATM    5  C   UNK     0       0.190   2.167  -8.565  0.00  0.00     0.022 A 
HETATM    6  C   UNK     0       1.284   2.906  -8.127  0.00  0.00    -0.027 A 
HETATM    7  C   UNK     0       0.367   0.815  -9.183  0.00  0.00     0.115 C 
HETATM    8  C   UNK     0      -0.398   0.546 -10.466  0.00  0.00     0.021 A 
HETATM    9  N   UNK     0      -0.678   1.396 -11.467  0.00  0.00    -0.361 N 
HETATM   10  C   UNK     0      -1.458   0.751 -12.359  0.00  0.00     0.022 A 
HETATM   11  C   UNK     0      -1.680  -0.553 -11.926  0.00  0.00    -0.027 A 
HETATM   12  C   UNK     0      -1.015  -0.689 -10.734  0.00  0.00    -0.031 A 
HETATM   13  C   UNK     0      -0.971  -1.947  -9.896  0.00  0.00     0.051 C 
HETATM   14  C   UNK     0      -2.067   1.350 -13.624  0.00  0.00     0.115 C 
HETATM   15  C   UNK     0      -3.009   2.515 -13.361  0.00  0.00     0.021 A 
HETATM   16  N   UNK     0      -2.728   3.673 -12.734  0.00  0.00    -0.361 N 
HETATM   17  C   UNK     0      -3.841   4.403 -12.644  0.00  0.00     0.022 A 
HETATM   18  C   UNK     0      -4.896   3.692 -13.249  0.00  0.00    -0.027 A 
HETATM   19  C   UNK     0      -4.361   2.511 -13.695  0.00  0.00    -0.031 A 
HETATM   20  C   UNK     0      -5.153   1.456 -14.445  0.00  0.00     0.051 C 
HETATM   21  C   UNK     0      -4.076   5.738 -11.973  0.00  0.00     0.115 C 
HETATM   22  C   UNK     0      -3.289   6.037 -10.719  0.00  0.00     0.022 A 
HETATM   23  N   UNK     0      -2.992   5.209  -9.708  0.00  0.00    -0.361 N 
HETATM   24  C   UNK     0      -2.150   5.848  -8.871  0.00  0.00     0.021 A 
HETATM   25  C   UNK     0      -1.907   7.122  -9.349  0.00  0.00    -0.031 A 
HETATM   26  C   UNK     0      -1.065   8.224  -8.740  0.00  0.00     0.051 C 
HETATM   27  C   UNK     0      -2.625   7.266 -10.531  0.00  0.00    -0.027 A 
HETATM   28  C   UNK     0      -1.467   5.290  -7.635  0.00  0.00     0.115 C 
HETATM   29  H   UNK     0      -1.972   2.564  -8.631  0.00  0.00     0.165 HD
HETATM   30  H   UNK     0      -0.284   2.436 -11.571  0.00  0.00     0.165 HD
HETATM   31  H   UNK     0      -1.713   4.003 -12.390  0.00  0.00     0.165 HD
HETATM   32  H   UNK     0      -3.409   4.180  -9.554  0.00  0.00     0.165 HD
ENDROOT
BRANCH   6  33
HETATM   33  C   UNK     0       2.746   2.540  -8.082  0.00  0.00     0.051 C 
BRANCH  33  34
HETATM   34  C   UNK     0       3.089   1.867  -6.774  0.00  0.00     0.114 C 
BRANCH  34  35
HETATM   35  C   UNK     0       4.551   1.573  -6.793  0.00  0.00     0.139 C 
HETATM   36  O   UNK     0       5.128   1.147  -5.750  0.00  0.00    -0.650 OA
BRANCH  35  37
HETATM   37  O   UNK     0       5.335   1.744  -7.927  0.00  0.00    -0.776 OA
HETATM   38  H   UNK     0       6.178   1.215  -8.078  0.00  0.00     0.167 HD
ENDBRANCH  35  37
ENDBRANCH  34  35
ENDBRANCH  33  34
ENDBRANCH   6  33
BRANCH  27  39
HETATM   39  C   UNK     0      -2.669   8.537 -11.303  0.00  0.00     0.051 C 
BRANCH  39  40
HETATM   40  C   UNK     0      -3.823   9.418 -11.126  0.00  0.00     0.114 C 
BRANCH  40  41
HETATM   41  C   UNK     0      -4.884   9.503 -12.104  0.00  0.00     0.139 C 
HETATM   42  O   UNK     0      -6.004   9.971 -11.858  0.00  0.00    -0.650 OA
BRANCH  41  43
HETATM   43  O   UNK     0      -4.646   9.028 -13.425  0.00  0.00    -0.776 OA
HETATM   44  H   UNK     0      -4.702   9.741 -14.142  0.00  0.00     0.167 HD
ENDBRANCH  41  43
ENDBRANCH  40  41
ENDBRANCH  39  40
ENDBRANCH  27  39
BRANCH  11  45
HETATM   45  C   UNK     0      -2.478  -1.643 -12.591  0.00  0.00     0.051 C 
BRANCH  45  46
HETATM   46  C   UNK     0      -3.946  -1.526 -12.394  0.00  0.00     0.114 C 
BRANCH  46  47
HETATM   47  C   UNK     0      -4.328  -2.497 -11.329  0.00  0.00     0.139 C 
HETATM   48  O   UNK     0      -5.170  -2.152 -10.488  0.00  0.00    -0.650 OA
BRANCH  47  49
HETATM   49  O   UNK     0      -3.760  -3.744 -11.279  0.00  0.00    -0.776 OA
HETATM   50  H   UNK     0      -2.936  -3.992 -11.841  0.00  0.00     0.167 HD
ENDBRANCH  47  49
ENDBRANCH  46  47
ENDBRANCH  45  46
ENDBRANCH  11  45
BRANCH  18  51
HETATM   51  C   UNK     0      -6.331   4.122 -13.412  0.00  0.00     0.051 C 
BRANCH  51  52
HETATM   52  C   UNK     0      -6.839   3.442 -14.674  0.00  0.00     0.114 C 
BRANCH  52  53
HETATM   53  C   UNK     0      -8.248   3.783 -14.953  0.00  0.00     0.139 C 
HETATM   54  O   UNK     0      -9.149   2.976 -14.674  0.00  0.00    -0.650 OA
BRANCH  53  55
HETATM   55  O   UNK     0      -8.554   4.994 -15.525  0.00  0.00    -0.776 OA
HETATM   56  H   UNK     0      -7.967   5.794 -15.546  0.00  0.00     0.167 HD
ENDBRANCH  53  55
ENDBRANCH  52  53
ENDBRANCH  51  52
ENDBRANCH  18  51
TORSDOF 16
ENDMDL
MODEL 3
REMARK VINA RESULT:     -10.3      1.991      6.953
REMARK  16 active torsions:
REMARK  status: ('A' for Active; 'I' for Inactive)
REMARK    1  A    between atoms: C_6  and  C_7 
REMARK    2  A    between atoms: C_7  and  C_8 
REMARK    3  A    between atoms: C_8  and  C_9 
REMARK    4  A    between atoms: C_9  and  O_11 
REMARK    5  A    between atoms: C_16  and  C_17 
REMARK    6  A    between atoms: C_17  and  C_18 
REMARK    7  A    between atoms: C_18  and  C_19 
REMARK    8  A    between atoms: C_19  and  O_21 
REMARK    9  A    between atoms: C_28  and  C_29 
REMARK   10  A    between atoms: C_29  and  C_30 
REMARK   11  A    between atoms: C_30  and  C_31 
REMARK   12  A    between atoms: C_31  and  O_33 
REMARK   13  A    between atoms: C_42  and  C_43 
REMARK   14  A    between atoms: C_43  and  C_44 
REMARK   15  A    between atoms: C_44  and  C_45 
REMARK   16  A    between atoms: C_45  and  O_47 
ROOT
HETATM    1  C   UNK     0      -4.948   3.259 -12.916  0.00  0.00     0.051 C 
HETATM    2  C   UNK     0      -4.123   3.496 -11.668  0.00  0.00    -0.031 A 
HETATM    3  C   UNK     0      -4.031   2.731 -10.516  0.00  0.00     0.021 A 
HETATM    4  N   UNK     0      -3.194   3.343  -9.645  0.00  0.00    -0.361 N 
HETATM    5  C   UNK     0      -2.744   4.478 -10.220  0.00  0.00     0.022 A 
HETATM    6  C   UNK     0      -3.308   4.606 -11.485  0.00  0.00    -0.027 A 
HETATM    7  C   UNK     0      -1.732   5.462  -9.721  0.00  0.00     0.115 C 
HETATM    8  C   UNK     0      -0.486   4.887  -9.071  0.00  0.00     0.021 A 
HETATM    9  N   UNK     0       0.185   3.770  -9.391  0.00  0.00    -0.361 N 
HETATM   10  C   UNK     0       1.173   3.601  -8.487  0.00  0.00     0.022 A 
HETATM   11  C   UNK     0       1.145   4.644  -7.566  0.00  0.00    -0.027 A 
HETATM   12  C   UNK     0       0.102   5.458  -7.928  0.00  0.00    -0.031 A 
HETATM   13  C   UNK     0      -0.307   6.726  -7.212  0.00  0.00     0.051 C 
HETATM   14  C   UNK     0       2.147   2.427  -8.425  0.00  0.00     0.115 C 
HETATM   15  C   UNK     0       1.475   1.080  -8.219  0.00  0.00     0.021 A 
HETATM   16  N   UNK     0       0.546   0.497  -9.000  0.00  0.00    -0.361 N 
HETATM   17  C   UNK     0       0.157  -0.650  -8.437  0.00  0.00     0.022 A 
HETATM   18  C   UNK     0       0.874  -0.827  -7.237  0.00  0.00    -0.027 A 
HETATM   19  C   UNK     0       1.697   0.262  -7.112  0.00  0.00    -0.031 A 
HETATM   20  C   UNK     0       2.675   0.454  -5.968  0.00  0.00     0.051 C 
HETATM   21  C   UNK     0      -0.904  -1.635  -8.873  0.00  0.00     0.115 C 
HETATM   22  C   UNK     0      -2.130  -1.081  -9.561  0.00  0.00     0.022 A 
HETATM   23  N   UNK     0      -2.815   0.031  -9.266  0.00  0.00    -0.361 N 
HETATM   24  C   UNK     0      -3.745   0.221 -10.224  0.00  0.00     0.021 A 
HETATM   25  C   UNK     0      -3.663  -0.799 -11.152  0.00  0.00    -0.031 A 
HETATM   26  C   UNK     0      -4.518  -1.044 -12.378  0.00  0.00     0.051 C 
HETATM   27  C   UNK     0      -2.637  -1.646 -10.749  0.00  0.00    -0.027 A 
HETATM   28  C   UNK     0      -4.700   1.393 -10.373  0.00  0.00     0.115 C 
HETATM   29  H   UNK     0      -2.958   2.990  -8.614  0.00  0.00     0.165 HD
HETATM   30  H   UNK     0      -0.006   3.124 -10.283  0.00  0.00     0.165 HD
HETATM   31  H   UNK     0       0.191   0.878  -9.992  0.00  0.00     0.165 HD
HETATM   32  H   UNK     0      -2.678   0.670  -8.356  0.00  0.00     0.165 HD
ENDROOT
BRANCH   6  33
HETATM   33  C   UNK     0      -3.135   5.689 -12.519  0.00  0.00     0.051 C 
BRANCH  33  34
HETATM   34  C   UNK     0      -3.901   6.930 -12.128  0.00  0.00     0.114 C 
BRANCH  34  35
HETATM   35  C   UNK     0      -4.884   7.209 -13.214  0.00  0.00     0.139 C 
HETATM   36  O   UNK     0      -5.782   6.362 -13.494  0.00  0.00    -0.650 OA
BRANCH  35  37
HETATM   37  O   UNK     0      -4.868   8.384 -13.955  0.00  0.00    -0.776 OA
HETATM   38  H   UNK     0      -4.902   8.381 -14.962  0.00  0.00     0.167 HD
ENDBRANCH  35  37
ENDBRANCH  34  35
ENDBRANCH  33  34
ENDBRANCH   6  33
BRANCH  27  39
HETATM   39  C   UNK     0      -2.295  -2.904 -11.465  0.00  0.00     0.051 C 
BRANCH  39  40
HETATM   40  C   UNK     0      -3.147  -4.075 -11.257  0.00  0.00     0.114 C 
BRANCH  40  41
HETATM   41  C   UNK     0      -3.041  -4.905 -10.078  0.00  0.00     0.139 C 
HETATM   42  O   UNK     0      -2.076  -4.871  -9.302  0.00  0.00    -0.650 OA
BRANCH  41  43
HETATM   43  O   UNK     0      -4.092  -5.817  -9.778  0.00  0.00    -0.776 OA
HETATM   44  H   UNK     0      -4.097  -6.653 -10.350  0.00  0.00     0.167 HD
ENDBRANCH  41  43
ENDBRANCH  40  41
ENDBRANCH  39  40
ENDBRANCH  27  39
BRANCH  11  45
HETATM   45  C   UNK     0       2.051   4.885  -6.389  0.00  0.00     0.051 C 
BRANCH  45  46
HETATM   46  C   UNK     0       3.483   5.047  -6.750  0.00  0.00     0.114 C 
BRANCH  46  47
HETATM   47  C   UNK     0       4.035   6.135  -5.893  0.00  0.00     0.139 C 
HETATM   48  O   UNK     0       3.714   7.305  -6.142  0.00  0.00    -0.650 OA
BRANCH  47  49
HETATM   49  O   UNK     0       4.881   5.848  -4.851  0.00  0.00    -0.776 OA
HETATM   50  H   UNK     0       5.883   6.068  -4.887  0.00  0.00     0.167 HD
ENDBRANCH  47  49
ENDBRANCH  46  47
ENDBRANCH  45  46
ENDBRANCH  11  45
BRANCH  18  51
HETATM   51  C   UNK     0       0.795  -1.982  -6.273  0.00  0.00     0.051 C 
BRANCH  51  52
HETATM   52  C   UNK     0       1.169  -3.226  -7.066  0.00  0.00     0.114 C 
BRANCH  52  53
HETATM   53  C   UNK     0       0.650  -4.456  -6.437  0.00  0.00     0.139 C 
HETATM   54  O   UNK     0       1.319  -5.041  -5.571  0.00  0.00    -0.650 OA
BRANCH  53  55
HETATM   55  O   UNK     0      -0.574  -4.950  -6.818  0.00  0.00    -0.776 OA
HETATM   56  H   UNK     0      -1.152  -4.585  -7.538  0.00  0.00     0.167 HD
ENDBRANCH  53  55
ENDBRANCH  52  53
ENDBRANCH  51  52
ENDBRANCH  18  51
TORSDOF 16
ENDMDL
MODEL 4
REMARK VINA RESULT:     -10.2      2.667      9.595
REMARK  16 active torsions:
REMARK  status: ('A' for Active; 'I' for Inactive)
REMARK    1  A    between atoms: C_6  and  C_7 
REMARK    2  A    between atoms: C_7  and  C_8 
REMARK    3  A    between atoms: C_8  and  C_9 
REMARK    4  A    between atoms: C_9  and  O_11 
REMARK    5  A    between atoms: C_16  and  C_17 
REMARK    6  A    between atoms: C_17  and  C_18 
REMARK    7  A    between atoms: C_18  and  C_19 
REMARK    8  A    between atoms: C_19  and  O_21 
REMARK    9  A    between atoms: C_28  and  C_29 
REMARK   10  A    between atoms: C_29  and  C_30 
REMARK   11  A    between atoms: C_30  and  C_31 
REMARK   12  A    between atoms: C_31  and  O_33 
REMARK   13  A    between atoms: C_42  and  C_43 
REMARK   14  A    between atoms: C_43  and  C_44 
REMARK   15  A    between atoms: C_44  and  C_45 
REMARK   16  A    between atoms: C_45  and  O_47 
ROOT
HETATM    1  C   UNK     0      -1.934  -1.545 -12.127  0.00  0.00     0.051 C 
HETATM    2  C   UNK     0      -1.258  -0.307 -11.573  0.00  0.00    -0.031 A 
HETATM    3  C   UNK     0      -1.092   0.940 -12.156  0.00  0.00     0.021 A 
HETATM    4  N   UNK     0      -0.399   1.735 -11.306  0.00  0.00    -0.361 N 
HETATM    5  C   UNK     0      -0.127   1.025 -10.192  0.00  0.00     0.022 A 
HETATM    6  C   UNK     0      -0.648  -0.258 -10.326  0.00  0.00    -0.027 A 
HETATM    7  C   UNK     0       0.529   1.463  -8.920  0.00  0.00     0.115 C 
HETATM    8  C   UNK     0       0.118   2.819  -8.373  0.00  0.00     0.021 A 
HETATM    9  N   UNK     0      -1.089   3.404  -8.409  0.00  0.00    -0.361 N 
HETATM   10  C   UNK     0      -0.970   4.644  -7.887  0.00  0.00     0.022 A 
HETATM   11  C   UNK     0       0.348   4.860  -7.497  0.00  0.00    -0.027 A 
HETATM   12  C   UNK     0       1.039   3.714  -7.800  0.00  0.00    -0.031 A 
HETATM   13  C   UNK     0       2.513   3.489  -7.546  0.00  0.00     0.051 C 
HETATM   14  C   UNK     0      -2.077   5.689  -7.785  0.00  0.00     0.115 C 
HETATM   15  C   UNK     0      -2.654   6.107  -9.128  0.00  0.00     0.021 A 
HETATM   16  N   UNK     0      -3.239   5.321 -10.052  0.00  0.00    -0.361 N 
HETATM   17  C   UNK     0      -3.548   6.057 -11.122  0.00  0.00     0.022 A 
HETATM   18  C   UNK     0      -3.154   7.388 -10.880  0.00  0.00    -0.027 A 
HETATM   19  C   UNK     0      -2.597   7.407  -9.628  0.00  0.00    -0.031 A 
HETATM   20  C   UNK     0      -2.071   8.662  -8.957  0.00  0.00     0.051 C 
HETATM   21  C   UNK     0      -4.147   5.642 -12.446  0.00  0.00     0.115 C 
HETATM   22  C   UNK     0      -3.782   4.277 -12.980  0.00  0.00     0.022 A 
HETATM   23  N   UNK     0      -2.589   3.668 -12.955  0.00  0.00    -0.361 N 
HETATM   24  C   UNK     0      -2.748   2.408 -13.407  0.00  0.00     0.021 A 
HETATM   25  C   UNK     0      -4.073   2.204 -13.742  0.00  0.00    -0.031 A 
HETATM   26  C   UNK     0      -4.730   0.971 -14.327  0.00  0.00     0.051 C 
HETATM   27  C   UNK     0      -4.755   3.386 -13.477  0.00  0.00    -0.027 A 
HETATM   28  C   UNK     0      -1.704   1.307 -13.478  0.00  0.00     0.115 C 
HETATM   29  H   UNK     0      -0.071   2.779 -11.516  0.00  0.00     0.165 HD
HETATM   30  H   UNK     0      -2.038   2.927  -8.755  0.00  0.00     0.165 HD
HETATM   31  H   UNK     0      -3.482   4.234  -9.928  0.00  0.00     0.165 HD
HETATM   32  H   UNK     0      -1.615   4.136 -12.658  0.00  0.00     0.165 HD
ENDROOT
BRANCH   6  33
HETATM   33  C   UNK     0      -0.609  -1.426  -9.373  0.00  0.00     0.051 C 
BRANCH  33  34
HETATM   34  C   UNK     0      -1.910  -1.541  -8.614  0.00  0.00     0.114 C 
BRANCH  34  35
HETATM   35  C   UNK     0      -1.705  -0.910  -7.279  0.00  0.00     0.139 C 
HETATM   36  O   UNK     0      -0.908  -1.429  -6.444  0.00  0.00    -0.650 OA
BRANCH  35  37
HETATM   37  O   UNK     0      -2.360   0.253  -6.891  0.00  0.00    -0.776 OA
HETATM   38  H   UNK     0      -2.030   0.824  -6.130  0.00  0.00     0.167 HD
ENDBRANCH  35  37
ENDBRANCH  34  35
ENDBRANCH  33  34
ENDBRANCH   6  33
BRANCH  27  39
HETATM   39  C   UNK     0      -6.200   3.574 -13.780  0.00  0.00     0.051 C 
BRANCH  39  40
HETATM   40  C   UNK     0      -6.722   3.035 -15.035  0.00  0.00     0.114 C 
BRANCH  40  41
HETATM   41  C   UNK     0      -8.071   3.295 -15.484  0.00  0.00     0.139 C 
HETATM   42  O   UNK     0      -9.039   2.582 -15.187  0.00  0.00    -0.650 OA
BRANCH  41  43
HETATM   43  O   UNK     0      -8.318   4.428 -16.311  0.00  0.00    -0.776 OA
HETATM   44  H   UNK     0      -7.502   4.776 -16.799  0.00  0.00     0.167 HD
ENDBRANCH  41  43
ENDBRANCH  40  41
ENDBRANCH  39  40
ENDBRANCH  27  39
BRANCH  11  45
HETATM   45  C   UNK     0       0.954   6.082  -6.861  0.00  0.00     0.051 C 
BRANCH  45  46
HETATM   46  C   UNK     0      -0.036   6.988  -6.224  0.00  0.00     0.114 C 
BRANCH  46  47
HETATM   47  C   UNK     0       0.682   8.243  -5.863  0.00  0.00     0.139 C 
HETATM   48  O   UNK     0       0.674   9.184  -6.670  0.00  0.00    -0.650 OA
BRANCH  47  49
HETATM   49  O   UNK     0       1.341   8.357  -4.665  0.00  0.00    -0.776 OA
HETATM   50  H   UNK     0       0.964   7.959  -3.796  0.00  0.00     0.167 HD
ENDBRANCH  47  49
ENDBRANCH  46  47
ENDBRANCH  45  46
ENDBRANCH  11  45
BRANCH  18  51
HETATM   51  C   UNK     0      -3.319   8.581 -11.785  0.00  0.00     0.051 C 
BRANCH  51  52
HETATM   52  C   UNK     0      -4.770   9.020 -11.651  0.00  0.00     0.114 C 
BRANCH  52  53
HETATM   53  C   UNK     0      -5.478   8.980 -12.945  0.00  0.00     0.139 C 
HETATM   54  O   UNK     0      -6.691   9.238 -12.998  0.00  0.00    -0.650 OA
BRANCH  53  55
HETATM   55  O   UNK     0      -4.789   8.651 -14.087  0.00  0.00    -0.776 OA
HETATM   56  H   UNK     0      -5.179   8.538 -14.993  0.00  0.00     0.167 HD
ENDBRANCH  53  55
ENDBRANCH  52  53
ENDBRANCH  51  52
ENDBRANCH  18  51
TORSDOF 16
ENDMDL
MODEL 5
REMARK VINA RESULT:     -10.1      2.249      7.446
REMARK  16 active torsions:
REMARK  status: ('A' for Active; 'I' for Inactive)
REMARK    1  A    between atoms: C_6  and  C_7 
REMARK    2  A    between atoms: C_7  and  C_8 
REMARK    3  A    between atoms: C_8  and  C_9 
REMARK    4  A    between atoms: C_9  and  O_11 
REMARK    5  A    between atoms: C_16  and  C_17 
REMARK    6  A    between atoms: C_17  and  C_18 
REMARK    7  A    between atoms: C_18  and  C_19 
REMARK    8  A    between atoms: C_19  and  O_21 
REMARK    9  A    between atoms: C_28  and  C_29 
REMARK   10  A    between atoms: C_29  and  C_30 
REMARK   11  A    between atoms: C_30  and  C_31 
REMARK   12  A    between atoms: C_31  and  O_33 
REMARK   13  A    between atoms: C_42  and  C_43 
REMARK   14  A    between atoms: C_43  and  C_44 
REMARK   15  A    between atoms: C_44  and  C_45 
REMARK   16  A    between atoms: C_45  and  O_47 
ROOT
HETATM    1  C   UNK     0      -0.803   5.773  -9.779  0.00  0.00     0.051 C 
HETATM    2  C   UNK     0      -0.911   4.374  -9.207  0.00  0.00    -0.031 A 
HETATM    3  C   UNK     0      -2.010   3.531  -9.145  0.00  0.00     0.021 A 
HETATM    4  N   UNK     0      -1.653   2.385  -8.519  0.00  0.00    -0.361 N 
HETATM    5  C   UNK     0      -0.348   2.475  -8.188  0.00  0.00     0.022 A 
HETATM    6  C   UNK     0       0.146   3.708  -8.601  0.00  0.00    -0.027 A 
HETATM    7  C   UNK     0       0.549   1.451  -7.568  0.00  0.00     0.115 C 
HETATM    8  C   UNK     0       0.423   0.030  -8.088  0.00  0.00     0.021 A 
HETATM    9  N   UNK     0       0.170  -0.383  -9.339  0.00  0.00    -0.361 N 
HETATM   10  C   UNK     0       0.054  -1.728  -9.322  0.00  0.00     0.022 A 
HETATM   11  C   UNK     0       0.248  -2.195  -8.025  0.00  0.00    -0.027 A 
HETATM   12  C   UNK     0       0.481  -1.093  -7.243  0.00  0.00    -0.031 A 
HETATM   13  C   UNK     0       0.751  -1.119  -5.755  0.00  0.00     0.051 C 
HETATM   14  C   UNK     0      -0.295  -2.618 -10.511  0.00  0.00     0.115 C 
HETATM   15  C   UNK     0      -1.655  -2.322 -11.124  0.00  0.00     0.021 A 
HETATM   16  N   UNK     0      -2.086  -1.158 -11.643  0.00  0.00    -0.361 N 
HETATM   17  C   UNK     0      -3.362  -1.289 -12.014  0.00  0.00     0.022 A 
HETATM   18  C   UNK     0      -3.779  -2.604 -11.731  0.00  0.00    -0.027 A 
HETATM   19  C   UNK     0      -2.700  -3.242 -11.175  0.00  0.00    -0.031 A 
HETATM   20  C   UNK     0      -2.707  -4.700 -10.753  0.00  0.00     0.051 C 
HETATM   21  C   UNK     0      -4.319  -0.264 -12.580  0.00  0.00     0.115 C 
HETATM   22  C   UNK     0      -4.176   1.162 -12.104  0.00  0.00     0.022 A 
HETATM   23  N   UNK     0      -3.920   1.602 -10.865  0.00  0.00    -0.361 N 
HETATM   24  C   UNK     0      -3.732   2.936 -10.920  0.00  0.00     0.021 A 
HETATM   25  C   UNK     0      -3.880   3.367 -12.224  0.00  0.00    -0.031 A 
HETATM   26  C   UNK     0      -3.803   4.775 -12.777  0.00  0.00     0.051 C 
HETATM   27  C   UNK     0      -4.166   2.250 -13.000  0.00  0.00    -0.027 A 
HETATM   28  C   UNK     0      -3.327   3.865  -9.788  0.00  0.00     0.115 C 
HETATM   29  H   UNK     0      -2.335   1.537  -8.279  0.00  0.00     0.165 HD
HETATM   30  H   UNK     0       0.121   0.268 -10.246  0.00  0.00     0.165 HD
HETATM   31  H   UNK     0      -1.464  -0.238 -11.796  0.00  0.00     0.165 HD
HETATM   32  H   UNK     0      -3.912   0.980  -9.932  0.00  0.00     0.165 HD
ENDROOT
BRANCH   6  33
HETATM   33  C   UNK     0       1.528   4.294  -8.464  0.00  0.00     0.051 C 
BRANCH  33  34
HETATM   34  C   UNK     0       1.736   4.856  -7.077  0.00  0.00     0.114 C 
BRANCH  34  35
HETATM   35  C   UNK     0       3.190   4.749  -6.765  0.00  0.00     0.139 C 
HETATM   36  O   UNK     0       3.867   3.776  -7.208  0.00  0.00    -0.650 OA
BRANCH  35  37
HETATM   37  O   UNK     0       3.862   5.690  -5.995  0.00  0.00    -0.776 OA
HETATM   38  H   UNK     0       4.710   5.467  -5.498  0.00  0.00     0.167 HD
ENDBRANCH  35  37
ENDBRANCH  34  35
ENDBRANCH  33  34
ENDBRANCH   6  33
BRANCH  27  39
HETATM   39  C   UNK     0      -4.462   2.329 -14.456  0.00  0.00     0.051 C 
BRANCH  39  40
HETATM   40  C   UNK     0      -5.862   2.337 -14.880  0.00  0.00     0.114 C 
BRANCH  40  41
HETATM   41  C   UNK     0      -6.264   1.980 -16.222  0.00  0.00     0.139 C 
HETATM   42  O   UNK     0      -7.400   1.585 -16.513  0.00  0.00    -0.650 OA
BRANCH  41  43
HETATM   43  O   UNK     0      -5.313   2.082 -17.278  0.00  0.00    -0.776 OA
HETATM   44  H   UNK     0      -4.840   2.976 -17.330  0.00  0.00     0.167 HD
ENDBRANCH  41  43
ENDBRANCH  40  41
ENDBRANCH  39  40
ENDBRANCH  27  39
BRANCH  11  45
HETATM   45  C   UNK     0       0.222  -3.613  -7.521  0.00  0.00     0.051 C 
BRANCH  45  46
HETATM   46  C   UNK     0      -1.136  -4.212  -7.466  0.00  0.00     0.114 C 
BRANCH  46  47
HETATM   47  C   UNK     0      -1.155  -5.160  -6.315  0.00  0.00     0.139 C 
HETATM   48  O   UNK     0      -0.574  -4.834  -5.271  0.00  0.00    -0.650 OA
BRANCH  47  49
HETATM   49  O   UNK     0      -1.799  -6.367  -6.409  0.00  0.00    -0.776 OA
HETATM   50  H   UNK     0      -1.339  -7.252  -6.165  0.00  0.00     0.167 HD
ENDBRANCH  47  49
ENDBRANCH  46  47
ENDBRANCH  45  46
ENDBRANCH  11  45
BRANCH  18  51
HETATM   51  C   UNK     0      -5.125  -3.226 -11.996  0.00  0.00     0.051 C 
BRANCH  51  52
HETATM   52  C   UNK     0      -5.991  -2.897 -10.789  0.00  0.00     0.114 C 
BRANCH  52  53
HETATM   53  C   UNK     0      -6.536  -4.114 -10.156  0.00  0.00     0.139 C 
HETATM   54  O   UNK     0      -6.168  -5.234 -10.543  0.00  0.00    -0.650 OA
BRANCH  53  55
HETATM   55  O   UNK     0      -7.454  -3.998  -9.140  0.00  0.00    -0.776 OA
HETATM   56  H   UNK     0      -8.084  -3.243  -9.005  0.00  0.00     0.167 HD
ENDBRANCH  53  55
ENDBRANCH  52  53
ENDBRANCH  51  52
ENDBRANCH  18  51
TORSDOF 16
ENDMDL
MODEL 6
REMARK VINA RESULT:     -10.1      1.861      2.351
REMARK  16 active torsions:
REMARK  status: ('A' for Active; 'I' for Inactive)
REMARK    1  A    between atoms: C_6  and  C_7 
REMARK    2  A    between atoms: C_7  and  C_8 
REMARK    3  A    between atoms: C_8  and  C_9 
REMARK    4  A    between atoms: C_9  and  O_11 
REMARK    5  A    between atoms: C_16  and  C_17 
REMARK    6  A    between atoms: C_17  and  C_18 
REMARK    7  A    between atoms: C_18  and  C_19 
REMARK    8  A    between atoms: C_19  and  O_21 
REMARK    9  A    between atoms: C_28  and  C_29 
REMARK   10  A    between atoms: C_29  and  C_30 
REMARK   11  A    between atoms: C_30  and  C_31 
REMARK   12  A    between atoms: C_31  and  O_33 
REMARK   13  A    between atoms: C_42  and  C_43 
REMARK   14  A    between atoms: C_43  and  C_44 
REMARK   15  A    between atoms: C_44  and  C_45 
REMARK   16  A    between atoms: C_45  and  O_47 
ROOT
HETATM    1  C   UNK     0       1.044   5.984  -6.397  0.00  0.00     0.051 C 
HETATM    2  C   UNK     0       0.301   5.656  -7.676  0.00  0.00    -0.031 A 
HETATM    3  C   UNK     0       0.643   4.777  -8.691  0.00  0.00     0.021 A 
HETATM    4  N   UNK     0      -0.304   4.828  -9.658  0.00  0.00    -0.361 N 
HETATM    5  C   UNK     0      -1.246   5.715  -9.277  0.00  0.00     0.022 A 
HETATM    6  C   UNK     0      -0.897   6.254  -8.043  0.00  0.00    -0.027 A 
HETATM    7  C   UNK     0      -2.541   6.071  -9.938  0.00  0.00     0.115 C 
HETATM    8  C   UNK     0      -3.357   4.921 -10.500  0.00  0.00     0.021 A 
HETATM    9  N   UNK     0      -3.499   3.679 -10.012  0.00  0.00    -0.361 N 
HETATM   10  C   UNK     0      -4.240   2.967 -10.888  0.00  0.00     0.022 A 
HETATM   11  C   UNK     0      -4.594   3.775 -11.964  0.00  0.00    -0.027 A 
HETATM   12  C   UNK     0      -4.041   5.008 -11.726  0.00  0.00    -0.031 A 
HETATM   13  C   UNK     0      -4.168   6.212 -12.632  0.00  0.00     0.051 C 
HETATM   14  C   UNK     0      -4.599   1.488 -10.771  0.00  0.00     0.115 C 
HETATM   15  C   UNK     0      -3.394   0.562 -10.751  0.00  0.00     0.021 A 
HETATM   16  N   UNK     0      -2.370   0.564  -9.877  0.00  0.00    -0.361 N 
HETATM   17  C   UNK     0      -1.478  -0.359 -10.244  0.00  0.00     0.022 A 
HETATM   18  C   UNK     0      -1.948  -1.000 -11.408  0.00  0.00    -0.027 A 
HETATM   19  C   UNK     0      -3.149  -0.415 -11.714  0.00  0.00    -0.031 A 
HETATM   20  C   UNK     0      -4.018  -0.836 -12.885  0.00  0.00     0.051 C 
HETATM   21  C   UNK     0      -0.133  -0.702  -9.645  0.00  0.00     0.115 C 
HETATM   22  C   UNK     0       0.670   0.425  -9.042  0.00  0.00     0.022 A 
HETATM   23  N   UNK     0       0.826   1.673  -9.504  0.00  0.00    -0.361 N 
HETATM   24  C   UNK     0       1.501   2.385  -8.579  0.00  0.00     0.021 A 
HETATM   25  C   UNK     0       1.797   1.574  -7.501  0.00  0.00    -0.031 A 
HETATM   26  C   UNK     0       2.571   1.906  -6.242  0.00  0.00     0.051 C 
HETATM   27  C   UNK     0       1.275   0.315  -7.773  0.00  0.00    -0.027 A 
HETATM   28  C   UNK     0       1.836   3.867  -8.610  0.00  0.00     0.115 C 
HETATM   29  H   UNK     0      -0.279   4.267 -10.620  0.00  0.00     0.165 HD
HETATM   30  H   UNK     0      -3.119   3.315  -9.026  0.00  0.00     0.165 HD
HETATM   31  H   UNK     0      -2.297   1.197  -8.955  0.00  0.00     0.165 HD
HETATM   32  H   UNK     0       0.498   2.051 -10.507  0.00  0.00     0.165 HD
ENDROOT
BRANCH   6  33
HETATM   33  C   UNK     0      -1.606   7.282  -7.198  0.00  0.00     0.051 C 
BRANCH  33  34
HETATM   34  C   UNK     0      -1.362   8.674  -7.731  0.00  0.00     0.114 C 
BRANCH  34  35
HETATM   35  C   UNK     0      -2.670   9.388  -7.731  0.00  0.00     0.139 C 
HETATM   36  O   UNK     0      -3.490   9.216  -8.679  0.00  0.00    -0.650 OA
BRANCH  35  37
HETATM   37  O   UNK     0      -3.050  10.257  -6.715  0.00  0.00    -0.776 OA
HETATM   38  H   UNK     0      -3.584  11.091  -6.897  0.00  0.00     0.167 HD
ENDBRANCH  35  37
ENDBRANCH  34  35
ENDBRANCH  33  34
ENDBRANCH   6  33
BRANCH  27  39
HETATM   39  C   UNK     0       1.458  -0.852  -6.868  0.00  0.00     0.051 C 
BRANCH  39  40
HETATM   40  C   UNK     0       0.405  -1.149  -5.897  0.00  0.00     0.114 C 
BRANCH  40  41
HETATM   41  C   UNK     0      -0.831  -1.797  -6.275  0.00  0.00     0.139 C 
HETATM   42  O   UNK     0      -1.853  -1.180  -6.604  0.00  0.00    -0.650 OA
BRANCH  41  43
HETATM   43  O   UNK     0      -0.893  -3.219  -6.275  0.00  0.00    -0.776 OA
HETATM   44  H   UNK     0      -1.740  -3.602  -5.871  0.00  0.00     0.167 HD
ENDBRANCH  41  43
ENDBRANCH  40  41
ENDBRANCH  39  40
ENDBRANCH  27  39
BRANCH  11  45
HETATM   45  C   UNK     0      -5.418   3.425 -13.174  0.00  0.00     0.051 C 
BRANCH  45  46
HETATM   46  C   UNK     0      -4.711   2.570 -14.162  0.00  0.00     0.114 C 
BRANCH  46  47
HETATM   47  C   UNK     0      -5.681   2.261 -15.251  0.00  0.00     0.139 C 
HETATM   48  O   UNK     0      -5.241   2.025 -16.386  0.00  0.00    -0.650 OA
BRANCH  47  49
HETATM   49  O   UNK     0      -7.030   2.238 -15.006  0.00  0.00    -0.776 OA
HETATM   50  H   UNK     0      -7.529   1.370 -14.777  0.00  0.00     0.167 HD
ENDBRANCH  47  49
ENDBRANCH  46  47
ENDBRANCH  45  46
ENDBRANCH  11  45
BRANCH  18  51
HETATM   51  C   UNK     0      -1.298  -2.123 -12.173  0.00  0.00     0.051 C 
BRANCH  51  52
HETATM   52  C   UNK     0       0.091  -1.631 -12.553  0.00  0.00     0.114 C 
BRANCH  52  53
HETATM   53  C   UNK     0       0.046  -0.311 -13.210  0.00  0.00     0.139 C 
HETATM   54  O   UNK     0       0.688   0.641 -12.737  0.00  0.00    -0.650 OA
BRANCH  53  55
HETATM   55  O   UNK     0      -0.712  -0.141 -14.343  0.00  0.00    -0.776 OA
HETATM   56  H   UNK     0      -1.265  -0.837 -14.785  0.00  0.00     0.167 HD
ENDBRANCH  53  55
ENDBRANCH  52  53
ENDBRANCH  51  52
ENDBRANCH  18  51
TORSDOF 16
ENDMDL
MODEL 7
REMARK VINA RESULT:     -10.1      2.340      7.121
REMARK  16 active torsions:
REMARK  status: ('A' for Active; 'I' for Inactive)
REMARK    1  A    between atoms: C_6  and  C_7 
REMARK    2  A    between atoms: C_7  and  C_8 
REMARK    3  A    between atoms: C_8  and  C_9 
REMARK    4  A    between atoms: C_9  and  O_11 
REMARK    5  A    between atoms: C_16  and  C_17 
REMARK    6  A    between atoms: C_17  and  C_18 
REMARK    7  A    between atoms: C_18  and  C_19 
REMARK    8  A    between atoms: C_19  and  O_21 
REMARK    9  A    between atoms: C_28  and  C_29 
REMARK   10  A    between atoms: C_29  and  C_30 
REMARK   11  A    between atoms: C_30  and  C_31 
REMARK   12  A    between atoms: C_31  and  O_33 
REMARK   13  A    between atoms: C_42  and  C_43 
REMARK   14  A    between atoms: C_43  and  C_44 
REMARK   15  A    between atoms: C_44  and  C_45 
REMARK   16  A    between atoms: C_45  and  O_47 
ROOT
HETATM    1  C   UNK     0      -4.966   3.427 -12.900  0.00  0.00     0.051 C 
HETATM    2  C   UNK     0      -4.137   3.638 -11.650  0.00  0.00    -0.031 A 
HETATM    3  C   UNK     0      -4.031   2.842 -10.520  0.00  0.00     0.021 A 
HETATM    4  N   UNK     0      -3.196   3.439  -9.636  0.00  0.00    -0.361 N 
HETATM    5  C   UNK     0      -2.761   4.594 -10.182  0.00  0.00     0.022 A 
HETATM    6  C   UNK     0      -3.332   4.750 -11.441  0.00  0.00    -0.027 A 
HETATM    7  C   UNK     0      -1.757   5.574  -9.661  0.00  0.00     0.115 C 
HETATM    8  C   UNK     0      -0.501   4.995  -9.033  0.00  0.00     0.021 A 
HETATM    9  N   UNK     0       0.179   3.894  -9.387  0.00  0.00    -0.361 N 
HETATM   10  C   UNK     0       1.174   3.710  -8.493  0.00  0.00     0.022 A 
HETATM   11  C   UNK     0       1.139   4.727  -7.543  0.00  0.00    -0.027 A 
HETATM   12  C   UNK     0       0.086   5.540  -7.877  0.00  0.00    -0.031 A 
HETATM   13  C   UNK     0      -0.332   6.783  -7.125  0.00  0.00     0.051 C 
HETATM   14  C   UNK     0       2.160   2.546  -8.468  0.00  0.00     0.115 C 
HETATM   15  C   UNK     0       1.502   1.186  -8.295  0.00  0.00     0.021 A 
HETATM   16  N   UNK     0       0.576   0.615  -9.087  0.00  0.00    -0.361 N 
HETATM   17  C   UNK     0       0.202  -0.550  -8.555  0.00  0.00     0.022 A 
HETATM   18  C   UNK     0       0.926  -0.753  -7.364  0.00  0.00    -0.027 A 
HETATM   19  C   UNK     0       1.738   0.341  -7.213  0.00  0.00    -0.031 A 
HETATM   20  C   UNK     0       2.720   0.511  -6.068  0.00  0.00     0.051 C 
HETATM   21  C   UNK     0      -0.851  -1.534  -9.012  0.00  0.00     0.115 C 
HETATM   22  C   UNK     0      -2.086  -0.974  -9.679  0.00  0.00     0.022 A 
HETATM   23  N   UNK     0      -2.782   0.122  -9.351  0.00  0.00    -0.361 N 
HETATM   24  C   UNK     0      -3.719   0.328 -10.298  0.00  0.00     0.021 A 
HETATM   25  C   UNK     0      -3.631  -0.665 -11.254  0.00  0.00    -0.031 A 
HETATM   26  C   UNK     0      -4.489  -0.884 -12.483  0.00  0.00     0.051 C 
HETATM   27  C   UNK     0      -2.593  -1.511 -10.880  0.00  0.00    -0.027 A 
HETATM   28  C   UNK     0      -4.686   1.494 -10.411  0.00  0.00     0.115 C 
HETATM   29  H   UNK     0      -2.951   3.060  -8.617  0.00  0.00     0.165 HD
HETATM   30  H   UNK     0      -0.009   3.271 -10.295  0.00  0.00     0.165 HD
HETATM   31  H   UNK     0       0.212   1.020 -10.068  0.00  0.00     0.165 HD
HETATM   32  H   UNK     0      -2.646   0.737  -8.423  0.00  0.00     0.165 HD
ENDROOT
BRANCH   6  33
HETATM   33  C   UNK     0      -3.175   5.864 -12.445  0.00  0.00     0.051 C 
BRANCH  33  34
HETATM   34  C   UNK     0      -4.007   7.061 -12.051  0.00  0.00     0.114 C 
BRANCH  34  35
HETATM   35  C   UNK     0      -4.944   7.344 -13.175  0.00  0.00     0.139 C 
HETATM   36  O   UNK     0      -5.914   6.565 -13.407  0.00  0.00    -0.650 OA
BRANCH  35  37
HETATM   37  O   UNK     0      -4.808   8.451 -14.004  0.00  0.00    -0.776 OA
HETATM   38  H   UNK     0      -5.464   8.651 -14.741  0.00  0.00     0.167 HD
ENDBRANCH  35  37
ENDBRANCH  34  35
ENDBRANCH  33  34
ENDBRANCH   6  33
BRANCH  27  39
HETATM   39  C   UNK     0      -2.242  -2.746 -11.632  0.00  0.00     0.051 C 
BRANCH  39  40
HETATM   40  C   UNK     0      -1.205  -2.662 -12.660  0.00  0.00     0.114 C 
BRANCH  40  41
HETATM   41  C   UNK     0      -0.312  -1.529 -12.762  0.00  0.00     0.139 C 
HETATM   42  O   UNK     0       0.723  -1.413 -12.092  0.00  0.00    -0.650 OA
BRANCH  41  43
HETATM   43  O   UNK     0      -0.624  -0.483 -13.676  0.00  0.00    -0.776 OA
HETATM   44  H   UNK     0      -0.797  -0.794 -14.625  0.00  0.00     0.167 HD
ENDBRANCH  41  43
ENDBRANCH  40  41
ENDBRANCH  39  40
ENDBRANCH  27  39
BRANCH  11  45
HETATM   45  C   UNK     0       2.049   4.946  -6.364  0.00  0.00     0.051 C 
BRANCH  45  46
HETATM   46  C   UNK     0       3.480   5.110  -6.726  0.00  0.00     0.114 C 
BRANCH  46  47
HETATM   47  C   UNK     0       4.035   6.186  -5.855  0.00  0.00     0.139 C 
HETATM   48  O   UNK     0       3.731   7.362  -6.100  0.00  0.00    -0.650 OA
BRANCH  47  49
HETATM   49  O   UNK     0       4.865   5.882  -4.805  0.00  0.00    -0.776 OA
HETATM   50  H   UNK     0       5.842   6.196  -4.775  0.00  0.00     0.167 HD
ENDBRANCH  47  49
ENDBRANCH  46  47
ENDBRANCH  45  46
ENDBRANCH  11  45
BRANCH  18  51
HETATM   51  C   UNK     0       0.864  -1.935  -6.432  0.00  0.00     0.051 C 
BRANCH  51  52
HETATM   52  C   UNK     0       1.077  -3.170  -7.294  0.00  0.00     0.114 C 
BRANCH  52  53
HETATM   53  C   UNK     0       0.477  -4.374  -6.688  0.00  0.00     0.139 C 
HETATM   54  O   UNK     0      -0.459  -4.957  -7.260  0.00  0.00    -0.650 OA
BRANCH  53  55
HETATM   55  O   UNK     0       0.956  -4.843  -5.490  0.00  0.00    -0.776 OA
HETATM   56  H   UNK     0       1.286  -5.763  -5.312  0.00  0.00     0.167 HD
ENDBRANCH  53  55
ENDBRANCH  52  53
ENDBRANCH  51  52
ENDBRANCH  18  51
TORSDOF 16
ENDMDL
MODEL 8
REMARK VINA RESULT:      -9.9      3.053      9.881
REMARK  16 active torsions:
REMARK  status: ('A' for Active; 'I' for Inactive)
REMARK    1  A    between atoms: C_6  and  C_7 
REMARK    2  A    between atoms: C_7  and  C_8 
REMARK    3  A    between atoms: C_8  and  C_9 
REMARK    4  A    between atoms: C_9  and  O_11 
REMARK    5  A    between atoms: C_16  and  C_17 
REMARK    6  A    between atoms: C_17  and  C_18 
REMARK    7  A    between atoms: C_18  and  C_19 
REMARK    8  A    between atoms: C_19  and  O_21 
REMARK    9  A    between atoms: C_28  and  C_29 
REMARK   10  A    between atoms: C_29  and  C_30 
REMARK   11  A    between atoms: C_30  and  C_31 
REMARK   12  A    between atoms: C_31  and  O_33 
REMARK   13  A    between atoms: C_42  and  C_43 
REMARK   14  A    between atoms: C_43  and  C_44 
REMARK   15  A    between atoms: C_44  and  C_45 
REMARK   16  A    between atoms: C_45  and  O_47 
ROOT
HETATM    1  C   UNK     0      -0.571  -0.308 -11.202  0.00  0.00     0.051 C 
HETATM    2  C   UNK     0      -0.172   1.033 -10.620  0.00  0.00    -0.031 A 
HETATM    3  C   UNK     0      -0.127   2.277 -11.229  0.00  0.00     0.021 A 
HETATM    4  N   UNK     0       0.320   3.190 -10.334  0.00  0.00    -0.361 N 
HETATM    5  C   UNK     0       0.552   2.556  -9.166  0.00  0.00     0.022 A 
HETATM    6  C   UNK     0       0.257   1.204  -9.311  0.00  0.00    -0.027 A 
HETATM    7  C   UNK     0       0.963   3.120  -7.842  0.00  0.00     0.115 C 
HETATM    8  C   UNK     0       0.281   4.405  -7.407  0.00  0.00     0.021 A 
HETATM    9  N   UNK     0      -0.987   4.791  -7.615  0.00  0.00    -0.361 N 
HETATM   10  C   UNK     0      -1.129   6.044  -7.135  0.00  0.00     0.022 A 
HETATM   11  C   UNK     0       0.079   6.474  -6.593  0.00  0.00    -0.027 A 
HETATM   12  C   UNK     0       0.972   5.446  -6.761  0.00  0.00    -0.031 A 
HETATM   13  C   UNK     0       2.417   5.463  -6.317  0.00  0.00     0.051 C 
HETATM   14  C   UNK     0      -2.388   6.903  -7.214  0.00  0.00     0.115 C 
HETATM   15  C   UNK     0      -2.845   7.195  -8.634  0.00  0.00     0.021 A 
HETATM   16  N   UNK     0      -3.177   6.307  -9.590  0.00  0.00    -0.361 N 
HETATM   17  C   UNK     0      -3.455   6.962 -10.719  0.00  0.00     0.022 A 
HETATM   18  C   UNK     0      -3.307   8.343 -10.486  0.00  0.00    -0.027 A 
HETATM   19  C   UNK     0      -2.925   8.476  -9.176  0.00  0.00    -0.031 A 
HETATM   20  C   UNK     0      -2.690   9.814  -8.497  0.00  0.00     0.051 C 
HETATM   21  C   UNK     0      -3.808   6.429 -12.089  0.00  0.00     0.115 C 
HETATM   22  C   UNK     0      -3.171   5.128 -12.517  0.00  0.00     0.022 A 
HETATM   23  N   UNK     0      -1.912   4.716 -12.320  0.00  0.00    -0.361 N 
HETATM   24  C   UNK     0      -1.815   3.437 -12.736  0.00  0.00     0.021 A 
HETATM   25  C   UNK     0      -3.038   3.019 -13.222  0.00  0.00    -0.031 A 
HETATM   26  C   UNK     0      -3.415   1.685 -13.834  0.00  0.00     0.051 C 
HETATM   27  C   UNK     0      -3.922   4.084 -13.094  0.00  0.00    -0.027 A 
HETATM   28  C   UNK     0      -0.613   2.515 -12.631  0.00  0.00     0.115 C 
HETATM   29  H   UNK     0       0.507   4.268 -10.545  0.00  0.00     0.165 HD
HETATM   30  H   UNK     0      -1.798   4.161  -8.057  0.00  0.00     0.165 HD
HETATM   31  H   UNK     0      -3.264   5.198  -9.452  0.00  0.00     0.165 HD
HETATM   32  H   UNK     0      -1.068   5.339 -11.924  0.00  0.00     0.165 HD
ENDROOT
BRANCH   6  33
HETATM   33  C   UNK     0       0.353   0.078  -8.313  0.00  0.00     0.051 C 
BRANCH  33  34
HETATM   34  C   UNK     0      -0.972  -0.139  -7.622  0.00  0.00     0.114 C 
BRANCH  34  35
HETATM   35  C   UNK     0      -0.698  -0.860  -6.346  0.00  0.00     0.139 C 
HETATM   36  O   UNK     0      -1.026  -2.076  -6.217  0.00  0.00    -0.650 OA
BRANCH  35  37
HETATM   37  O   UNK     0      -0.081  -0.252  -5.260  0.00  0.00    -0.776 OA
HETATM   38  H   UNK     0       0.896  -0.006  -5.268  0.00  0.00     0.167 HD
ENDBRANCH  35  37
ENDBRANCH  34  35
ENDBRANCH  33  34
ENDBRANCH   6  33
BRANCH  27  39
HETATM   39  C   UNK     0      -5.328   4.034 -13.580  0.00  0.00     0.051 C 
BRANCH  39  40
HETATM   40  C   UNK     0      -6.384   4.538 -12.703  0.00  0.00     0.114 C 
BRANCH  40  41
HETATM   41  C   UNK     0      -7.716   4.824 -13.187  0.00  0.00     0.139 C 
HETATM   42  O   UNK     0      -8.700   4.952 -12.445  0.00  0.00    -0.650 OA
BRANCH  41  43
HETATM   43  O   UNK     0      -7.927   4.970 -14.587  0.00  0.00    -0.776 OA
HETATM   44  H   UNK     0      -8.898   4.925 -14.872  0.00  0.00     0.167 HD
ENDBRANCH  41  43
ENDBRANCH  40  41
ENDBRANCH  39  40
ENDBRANCH  27  39
BRANCH  11  45
HETATM   45  C   UNK     0       0.402   7.790  -5.938  0.00  0.00     0.051 C 
BRANCH  45  46
HETATM   46  C   UNK     0       0.702   8.886  -6.895  0.00  0.00     0.114 C 
BRANCH  46  47
HETATM   47  C   UNK     0       1.900   9.608  -6.378  0.00  0.00     0.139 C 
HETATM   48  O   UNK     0       2.364   9.274  -5.279  0.00  0.00    -0.650 OA
BRANCH  47  49
HETATM   49  O   UNK     0       2.477  10.620  -7.102  0.00  0.00    -0.776 OA
HETATM   50  H   UNK     0       3.372  10.500  -7.591  0.00  0.00     0.167 HD
ENDBRANCH  47  49
ENDBRANCH  46  47
ENDBRANCH  45  46
ENDBRANCH  11  45
BRANCH  18  51
HETATM   51  C   UNK     0      -3.536   9.476 -11.453  0.00  0.00     0.051 C 
BRANCH  51  52
HETATM   52  C   UNK     0      -4.988   9.897 -11.279  0.00  0.00     0.114 C 
BRANCH  52  53
HETATM   53  C   UNK     0      -5.192  11.318 -11.621  0.00  0.00     0.139 C 
HETATM   54  O   UNK     0      -4.541  11.836 -12.542  0.00  0.00    -0.650 OA
BRANCH  53  55
HETATM   55  O   UNK     0      -6.103  12.063 -10.912  0.00  0.00    -0.776 OA
HETATM   56  H   UNK     0      -6.071  13.046 -10.773  0.00  0.00     0.167 HD
ENDBRANCH  53  55
ENDBRANCH  52  53
ENDBRANCH  51  52
ENDBRANCH  18  51
TORSDOF 16
ENDMDL
MODEL 9
REMARK VINA RESULT:      -9.9      2.653      9.380
REMARK  16 active torsions:
REMARK  status: ('A' for Active; 'I' for Inactive)
REMARK    1  A    between atoms: C_6  and  C_7 
REMARK    2  A    between atoms: C_7  and  C_8 
REMARK    3  A    between atoms: C_8  and  C_9 
REMARK    4  A    between atoms: C_9  and  O_11 
REMARK    5  A    between atoms: C_16  and  C_17 
REMARK    6  A    between atoms: C_17  and  C_18 
REMARK    7  A    between atoms: C_18  and  C_19 
REMARK    8  A    between atoms: C_19  and  O_21 
REMARK    9  A    between atoms: C_28  and  C_29 
REMARK   10  A    between atoms: C_29  and  C_30 
REMARK   11  A    between atoms: C_30  and  C_31 
REMARK   12  A    between atoms: C_31  and  O_33 
REMARK   13  A    between atoms: C_42  and  C_43 
REMARK   14  A    between atoms: C_43  and  C_44 
REMARK   15  A    between atoms: C_44  and  C_45 
REMARK   16  A    between atoms: C_45  and  O_47 
ROOT
HETATM    1  C   UNK     0      -4.858  -0.188 -13.200  0.00  0.00     0.051 C 
HETATM    2  C   UNK     0      -3.718  -0.732 -12.363  0.00  0.00    -0.031 A 
HETATM    3  C   UNK     0      -2.383  -0.362 -12.349  0.00  0.00     0.021 A 
HETATM    4  N   UNK     0      -1.718  -1.142 -11.464  0.00  0.00    -0.361 N 
HETATM    5  C   UNK     0      -2.602  -1.995 -10.908  0.00  0.00     0.022 A 
HETATM    6  C   UNK     0      -3.863  -1.769 -11.450  0.00  0.00    -0.027 A 
HETATM    7  C   UNK     0      -2.400  -2.995  -9.812  0.00  0.00     0.115 C 
HETATM    8  C   UNK     0      -1.561  -2.548  -8.628  0.00  0.00     0.021 A 
HETATM    9  N   UNK     0      -1.493  -1.333  -8.062  0.00  0.00    -0.361 N 
HETATM   10  C   UNK     0      -0.548  -1.372  -7.099  0.00  0.00     0.022 A 
HETATM   11  C   UNK     0       0.001  -2.649  -7.036  0.00  0.00    -0.027 A 
HETATM   12  C   UNK     0      -0.632  -3.396  -7.997  0.00  0.00    -0.031 A 
HETATM   13  C   UNK     0      -0.362  -4.854  -8.290  0.00  0.00     0.051 C 
HETATM   14  C   UNK     0      -0.090  -0.198  -6.238  0.00  0.00     0.115 C 
HETATM   15  C   UNK     0       0.503   0.954  -7.034  0.00  0.00     0.021 A 
HETATM   16  N   UNK     0      -0.089   1.670  -8.008  0.00  0.00    -0.361 N 
HETATM   17  C   UNK     0       0.789   2.545  -8.505  0.00  0.00     0.022 A 
HETATM   18  C   UNK     0       2.008   2.398  -7.814  0.00  0.00    -0.027 A 
HETATM   19  C   UNK     0       1.816   1.400  -6.895  0.00  0.00    -0.031 A 
HETATM   20  C   UNK     0       2.877   0.944  -5.910  0.00  0.00     0.051 C 
HETATM   21  C   UNK     0       0.646   3.521  -9.650  0.00  0.00     0.115 C 
HETATM   22  C   UNK     0      -0.222   3.107 -10.815  0.00  0.00     0.022 A 
HETATM   23  N   UNK     0      -0.313   1.904 -11.396  0.00  0.00    -0.361 N 
HETATM   24  C   UNK     0      -1.314   1.945 -12.299  0.00  0.00     0.021 A 
HETATM   25  C   UNK     0      -1.874   3.208 -12.307  0.00  0.00    -0.031 A 
HETATM   26  C   UNK     0      -2.992   3.749 -13.173  0.00  0.00     0.051 C 
HETATM   27  C   UNK     0      -1.192   3.970 -11.365  0.00  0.00    -0.027 A 
HETATM   28  C   UNK     0      -1.854   0.801 -13.140  0.00  0.00     0.115 C 
HETATM   29  H   UNK     0      -0.621  -1.110 -11.268  0.00  0.00     0.165 HD
HETATM   30  H   UNK     0      -2.145  -0.460  -8.307  0.00  0.00     0.165 HD
HETATM   31  H   UNK     0      -1.163   1.590  -8.320  0.00  0.00     0.165 HD
HETATM   32  H   UNK     0       0.357   1.027 -11.205  0.00  0.00     0.165 HD
ENDROOT
BRANCH   6  33
HETATM   33  C   UNK     0      -5.176  -2.454 -11.171  0.00  0.00     0.051 C 
BRANCH  33  34
HETATM   34  C   UNK     0      -5.070  -3.939 -11.427  0.00  0.00     0.114 C 
BRANCH  34  35
HETATM   35  C   UNK     0      -5.889  -4.630 -10.390  0.00  0.00     0.139 C 
HETATM   36  O   UNK     0      -6.742  -3.983  -9.716  0.00  0.00    -0.650 OA
BRANCH  35  37
HETATM   37  O   UNK     0      -5.764  -5.987 -10.119  0.00  0.00    -0.776 OA
HETATM   38  H   UNK     0      -6.058  -6.386  -9.242  0.00  0.00     0.167 HD
ENDBRANCH  35  37
ENDBRANCH  34  35
ENDBRANCH  33  34
ENDBRANCH   6  33
BRANCH  27  39
HETATM   39  C   UNK     0      -1.469   5.414 -11.138  0.00  0.00     0.051 C 
BRANCH  39  40
HETATM   40  C   UNK     0      -2.413   5.783 -10.083  0.00  0.00     0.114 C 
BRANCH  40  41
HETATM   41  C   UNK     0      -2.671   4.927  -8.947  0.00  0.00     0.139 C 
HETATM   42  O   UNK     0      -2.071   5.024  -7.868  0.00  0.00    -0.650 OA
BRANCH  41  43
HETATM   43  O   UNK     0      -3.664   3.913  -9.057  0.00  0.00    -0.776 OA
HETATM   44  H   UNK     0      -3.445   3.056  -8.563  0.00  0.00     0.167 HD
ENDBRANCH  41  43
ENDBRANCH  40  41
ENDBRANCH  39  40
ENDBRANCH  27  39
BRANCH  11  45
HETATM   45  C   UNK     0       1.074  -3.169  -6.118  0.00  0.00     0.051 C 
BRANCH  45  46
HETATM   46  C   UNK     0       0.568  -3.665  -4.813  0.00  0.00     0.114 C 
BRANCH  46  47
HETATM   47  C   UNK     0       0.645  -5.153  -4.846  0.00  0.00     0.139 C 
HETATM   48  O   UNK     0       1.760  -5.687  -4.917  0.00  0.00    -0.650 OA
BRANCH  47  49
HETATM   49  O   UNK     0      -0.494  -5.917  -4.800  0.00  0.00    -0.776 OA
HETATM   50  H   UNK     0      -1.394  -5.536  -4.483  0.00  0.00     0.167 HD
ENDBRANCH  47  49
ENDBRANCH  46  47
ENDBRANCH  45  46
ENDBRANCH  11  45
BRANCH  18  51
HETATM   51  C   UNK     0       3.281   3.181  -8.006  0.00  0.00     0.051 C 
BRANCH  51  52
HETATM   52  C   UNK     0       4.064   2.463  -9.095  0.00  0.00     0.114 C 
BRANCH  52  53
HETATM   53  C   UNK     0       3.733   2.975 -10.439  0.00  0.00     0.139 C 
HETATM   54  O   UNK     0       3.268   2.209 -11.298  0.00  0.00    -0.650 OA
BRANCH  53  55
HETATM   55  O   UNK     0       3.946   4.300 -10.733  0.00  0.00    -0.776 OA
HETATM   56  H   UNK     0       4.616   4.655 -11.373  0.00  0.00     0.167 HD
ENDBRANCH  53  55
ENDBRANCH  52  53
ENDBRANCH  51  52
ENDBRANCH  18  51
TORSDOF 16
ENDMDL
MODEL 10
REMARK VINA RESULT:      -9.2     29.729     33.652
REMARK  16 active torsions:
REMARK  status: ('A' for Active; 'I' for Inactive)
REMARK    1  A    between atoms: C_6  and  C_7 
REMARK    2  A    between atoms: C_7  and  C_8 
REMARK    3  A    between atoms: C_8  and  C_9 
REMARK    4  A    between atoms: C_9  and  O_11 
REMARK    5  A    between atoms: C_16  and  C_17 
REMARK    6  A    between atoms: C_17  and  C_18 
REMARK    7  A    between atoms: C_18  and  C_19 
REMARK    8  A    between atoms: C_19  and  O_21 
REMARK    9  A    between atoms: C_28  and  C_29 
REMARK   10  A    between atoms: C_29  and  C_30 
REMARK   11  A    between atoms: C_30  and  C_31 
REMARK   12  A    between atoms: C_31  and  O_33 
REMARK   13  A    between atoms: C_42  and  C_43 
REMARK   14  A    between atoms: C_43  and  C_44 
REMARK   15  A    between atoms: C_44  and  C_45 
REMARK   16  A    between atoms: C_45  and  O_47 
ROOT
HETATM    1  C   UNK     0     -19.512  15.389  12.037  0.00  0.00     0.051 C 
HETATM    2  C   UNK     0     -20.877  14.965  11.535  0.00  0.00    -0.031 A 
HETATM    3  C   UNK     0     -22.105  15.588  11.691  0.00  0.00     0.021 A 
HETATM    4  N   UNK     0     -23.061  14.834  11.101  0.00  0.00    -0.361 N 
HETATM    5  C   UNK     0     -22.469  13.747  10.564  0.00  0.00     0.022 A 
HETATM    6  C   UNK     0     -21.103  13.796  10.819  0.00  0.00    -0.027 A 
HETATM    7  C   UNK     0     -23.061  12.655   9.728  0.00  0.00     0.115 C 
HETATM    8  C   UNK     0     -24.045  13.079   8.651  0.00  0.00     0.021 A 
HETATM    9  N   UNK     0     -24.027  14.184   7.891  0.00  0.00    -0.361 N 
HETATM   10  C   UNK     0     -25.147  14.192   7.136  0.00  0.00     0.022 A 
HETATM   11  C   UNK     0     -25.901  13.055   7.412  0.00  0.00    -0.027 A 
HETATM   12  C   UNK     0     -25.213  12.350   8.365  0.00  0.00    -0.031 A 
HETATM   13  C   UNK     0     -25.654  11.035   8.969  0.00  0.00     0.051 C 
HETATM   14  C   UNK     0     -25.574  15.292   6.169  0.00  0.00     0.115 C 
HETATM   15  C   UNK     0     -25.786  16.644   6.829  0.00  0.00     0.021 A 
HETATM   16  N   UNK     0     -24.891  17.365   7.531  0.00  0.00    -0.361 N 
HETATM   17  C   UNK     0     -25.487  18.462   8.005  0.00  0.00     0.022 A 
HETATM   18  C   UNK     0     -26.831  18.460   7.584  0.00  0.00    -0.027 A 
HETATM   19  C   UNK     0     -27.006  17.318   6.847  0.00  0.00    -0.031 A 
HETATM   20  C   UNK     0     -28.311  16.941   6.171  0.00  0.00     0.051 C 
HETATM   21  C   UNK     0     -24.945  19.550   8.904  0.00  0.00     0.115 C 
HETATM   22  C   UNK     0     -23.932  19.150   9.951  0.00  0.00     0.022 A 
HETATM   23  N   UNK     0     -23.922  18.054  10.720  0.00  0.00    -0.361 N 
HETATM   24  C   UNK     0     -22.761  18.028  11.406  0.00  0.00     0.021 A 
HETATM   25  C   UNK     0     -22.010  19.140  11.077  0.00  0.00    -0.031 A 
HETATM   26  C   UNK     0     -20.660  19.571  11.613  0.00  0.00     0.051 C 
HETATM   27  C   UNK     0     -22.738  19.874  10.148  0.00  0.00    -0.027 A 
HETATM   28  C   UNK     0     -22.254  16.938  12.334  0.00  0.00     0.115 C 
HETATM   29  H   UNK     0     -24.154  15.054  11.102  0.00  0.00     0.165 HD
HETATM   30  H   UNK     0     -23.202  14.936   7.847  0.00  0.00     0.165 HD
HETATM   31  H   UNK     0     -23.804  17.120   7.655  0.00  0.00     0.165 HD
HETATM   32  H   UNK     0     -24.754  17.309  10.819  0.00  0.00     0.165 HD
ENDROOT
BRANCH   6  33
HETATM   33  C   UNK     0     -20.010  12.828  10.442  0.00  0.00     0.051 C 
BRANCH  33  34
HETATM   34  C   UNK     0     -19.606  11.987  11.630  0.00  0.00     0.114 C 
BRANCH  34  35
HETATM   35  C   UNK     0     -20.535  10.821  11.688  0.00  0.00     0.139 C 
HETATM   36  O   UNK     0     -21.452  10.780  12.560  0.00  0.00    -0.650 OA
BRANCH  35  37
HETATM   37  O   UNK     0     -20.446   9.748  10.810  0.00  0.00    -0.776 OA
HETATM   38  H   UNK     0     -19.561   9.346  10.545  0.00  0.00     0.167 HD
ENDBRANCH  35  37
ENDBRANCH  34  35
ENDBRANCH  33  34
ENDBRANCH   6  33
BRANCH  27  39
HETATM   39  C   UNK     0     -22.280  21.183   9.610  0.00  0.00     0.051 C 
BRANCH  39  40
HETATM   40  C   UNK     0     -22.756  22.405  10.257  0.00  0.00     0.114 C 
BRANCH  40  41
HETATM   41  C   UNK     0     -22.167  22.910  11.477  0.00  0.00     0.139 C 
HETATM   42  O   UNK     0     -22.584  22.624  12.607  0.00  0.00    -0.650 OA
BRANCH  41  43
HETATM   43  O   UNK     0     -21.047  23.786  11.393  0.00  0.00    -0.776 OA
HETATM   44  H   UNK     0     -21.066  24.415  10.599  0.00  0.00     0.167 HD
ENDBRANCH  41  43
ENDBRANCH  40  41
ENDBRANCH  39  40
ENDBRANCH  27  39
BRANCH  11  45
HETATM   45  C   UNK     0     -27.215  12.629   6.814  0.00  0.00     0.051 C 
BRANCH  45  46
HETATM   46  C   UNK     0     -27.094  11.985   5.481  0.00  0.00     0.114 C 
BRANCH  46  47
HETATM   47  C   UNK     0     -27.290  10.520   5.679  0.00  0.00     0.139 C 
HETATM   48  O   UNK     0     -26.458   9.741   5.195  0.00  0.00    -0.650 OA
BRANCH  47  49
HETATM   49  O   UNK     0     -28.368  10.044   6.382  0.00  0.00    -0.776 OA
HETATM   50  H   UNK     0     -28.770  10.555   7.177  0.00  0.00     0.167 HD
ENDBRANCH  47  49
ENDBRANCH  46  47
ENDBRANCH  45  46
ENDBRANCH  11  45
BRANCH  18  51
HETATM   51  C   UNK     0     -27.887  19.502   7.851  0.00  0.00     0.051 C 
BRANCH  51  52
HETATM   52  C   UNK     0     -28.599  19.070   9.124  0.00  0.00     0.114 C 
BRANCH  52  53
HETATM   53  C   UNK     0     -28.341  19.999  10.241  0.00  0.00     0.139 C 
HETATM   54  O   UNK     0     -28.922  21.095  10.285  0.00  0.00    -0.650 OA
BRANCH  53  55
HETATM   55  O   UNK     0     -27.452  19.645  11.228  0.00  0.00    -0.776 OA
HETATM   56  H   UNK     0     -26.504  19.386  11.093  0.00  0.00     0.167 HD
ENDBRANCH  53  55
ENDBRANCH  52  53
ENDBRANCH  51  52
ENDBRANCH  18  51
TORSDOF 16
ENDMDL
MODEL 11
REMARK VINA RESULT:      -9.2     31.960     34.522
REMARK  16 active torsions:
REMARK  status: ('A' for Active; 'I' for Inactive)
REMARK    1  A    between atoms: C_6  and  C_7 
REMARK    2  A    between atoms: C_7  and  C_8 
REMARK    3  A    between atoms: C_8  and  C_9 
REMARK    4  A    between atoms: C_9  and  O_11 
REMARK    5  A    between atoms: C_16  and  C_17 
REMARK    6  A    between atoms: C_17  and  C_18 
REMARK    7  A    between atoms: C_18  and  C_19 
REMARK    8  A    between atoms: C_19  and  O_21 
REMARK    9  A    between atoms: C_28  and  C_29 
REMARK   10  A    between atoms: C_29  and  C_30 
REMARK   11  A    between atoms: C_30  and  C_31 
REMARK   12  A    between atoms: C_31  and  O_33 
REMARK   13  A    between atoms: C_42  and  C_43 
REMARK   14  A    between atoms: C_43  and  C_44 
REMARK   15  A    between atoms: C_44  and  C_45 
REMARK   16  A    between atoms: C_45  and  O_47 
ROOT
HETATM    1  C   UNK     0     -24.962  15.830   9.592  0.00  0.00     0.051 C 
HETATM    2  C   UNK     0     -25.679  16.509   8.443  0.00  0.00    -0.031 A 
HETATM    3  C   UNK     0     -25.774  16.124   7.115  0.00  0.00     0.021 A 
HETATM    4  N   UNK     0     -26.489  17.053   6.436  0.00  0.00    -0.361 N 
HETATM    5  C   UNK     0     -26.859  18.016   7.305  0.00  0.00     0.022 A 
HETATM    6  C   UNK     0     -26.367  17.709   8.569  0.00  0.00    -0.027 A 
HETATM    7  C   UNK     0     -27.735  19.211   7.085  0.00  0.00     0.115 C 
HETATM    8  C   UNK     0     -28.989  18.993   6.257  0.00  0.00     0.021 A 
HETATM    9  N   UNK     0     -29.786  17.915   6.214  0.00  0.00    -0.361 N 
HETATM   10  C   UNK     0     -30.728  18.127   5.270  0.00  0.00     0.022 A 
HETATM   11  C   UNK     0     -30.538  19.381   4.696  0.00  0.00    -0.027 A 
HETATM   12  C   UNK     0     -29.444  19.932   5.313  0.00  0.00    -0.031 A 
HETATM   13  C   UNK     0     -28.867  21.297   5.014  0.00  0.00     0.051 C 
HETATM   14  C   UNK     0     -31.807  17.140   4.836  0.00  0.00     0.115 C 
HETATM   15  C   UNK     0     -31.261  15.841   4.264  0.00  0.00     0.021 A 
HETATM   16  N   UNK     0     -30.446  14.957   4.868  0.00  0.00    -0.361 N 
HETATM   17  C   UNK     0     -30.138  13.984   4.007  0.00  0.00     0.022 A 
HETATM   18  C   UNK     0     -30.792  14.243   2.786  0.00  0.00    -0.027 A 
HETATM   19  C   UNK     0     -31.493  15.408   2.960  0.00  0.00    -0.031 A 
HETATM   20  C   UNK     0     -32.373  16.031   1.893  0.00  0.00     0.051 C 
HETATM   21  C   UNK     0     -29.210  12.802   4.167  0.00  0.00     0.115 C 
HETATM   22  C   UNK     0     -27.981  12.991   5.025  0.00  0.00     0.022 A 
HETATM   23  N   UNK     0     -27.171  14.055   5.091  0.00  0.00    -0.361 N 
HETATM   24  C   UNK     0     -26.289  13.854   6.091  0.00  0.00     0.021 A 
HETATM   25  C   UNK     0     -26.530  12.626   6.675  0.00  0.00    -0.031 A 
HETATM   26  C   UNK     0     -25.783  11.943   7.802  0.00  0.00     0.051 C 
HETATM   27  C   UNK     0     -27.608  12.054   6.010  0.00  0.00    -0.027 A 
HETATM   28  C   UNK     0     -25.234  14.817   6.607  0.00  0.00     0.115 C 
HETATM   29  H   UNK     0     -26.694  17.040   5.341  0.00  0.00     0.165 HD
HETATM   30  H   UNK     0     -29.717  17.022   6.883  0.00  0.00     0.165 HD
HETATM   31  H   UNK     0     -30.118  14.993   5.940  0.00  0.00     0.165 HD
HETATM   32  H   UNK     0     -27.187  14.941   4.404  0.00  0.00     0.165 HD
ENDROOT
BRANCH   6  33
HETATM   33  C   UNK     0     -26.496  18.461   9.869  0.00  0.00     0.051 C 
BRANCH  33  34
HETATM   34  C   UNK     0     -27.905  18.368  10.403  0.00  0.00     0.114 C 
BRANCH  34  35
HETATM   35  C   UNK     0     -27.914  17.318  11.461  0.00  0.00     0.139 C 
HETATM   36  O   UNK     0     -26.870  17.086  12.137  0.00  0.00    -0.650 OA
BRANCH  35  37
HETATM   37  O   UNK     0     -29.040  16.559  11.755  0.00  0.00    -0.776 OA
HETATM   38  H   UNK     0     -29.649  16.782  12.526  0.00  0.00     0.167 HD
ENDBRANCH  35  37
ENDBRANCH  34  35
ENDBRANCH  33  34
ENDBRANCH   6  33
BRANCH  27  39
HETATM   39  C   UNK     0     -28.118  10.690   6.315  0.00  0.00     0.051 C 
BRANCH  39  40
HETATM   40  C   UNK     0     -29.130  10.544   7.361  0.00  0.00     0.114 C 
BRANCH  40  41
HETATM   41  C   UNK     0     -30.409  11.215   7.295  0.00  0.00     0.139 C 
HETATM   42  O   UNK     0     -31.186  11.110   6.337  0.00  0.00    -0.650 OA
BRANCH  41  43
HETATM   43  O   UNK     0     -30.812  12.043   8.380  0.00  0.00    -0.776 OA
HETATM   44  H   UNK     0     -30.377  11.814   9.266  0.00  0.00     0.167 HD
ENDBRANCH  41  43
ENDBRANCH  40  41
ENDBRANCH  39  40
ENDBRANCH  27  39
BRANCH  11  45
HETATM   45  C   UNK     0     -31.340  20.053   3.614  0.00  0.00     0.051 C 
BRANCH  45  46
HETATM   46  C   UNK     0     -30.989  19.615   2.239  0.00  0.00     0.114 C 
BRANCH  46  47
HETATM   47  C   UNK     0     -30.989  20.830   1.376  0.00  0.00     0.139 C 
HETATM   48  O   UNK     0     -31.967  21.590   1.421  0.00  0.00    -0.650 OA
BRANCH  47  49
HETATM   49  O   UNK     0     -29.930  21.103   0.547  0.00  0.00    -0.776 OA
HETATM   50  H   UNK     0     -29.899  21.945  -0.040  0.00  0.00     0.167 HD
ENDBRANCH  47  49
ENDBRANCH  46  47
ENDBRANCH  45  46
ENDBRANCH  11  45
BRANCH  18  51
HETATM   51  C   UNK     0     -30.768  13.413   1.528  0.00  0.00     0.051 C 
BRANCH  51  52
HETATM   52  C   UNK     0     -32.068  12.623   1.514  0.00  0.00     0.114 C 
BRANCH  52  53
HETATM   53  C   UNK     0     -31.937  11.338   2.227  0.00  0.00     0.139 C 
HETATM   54  O   UNK     0     -31.642  10.307   1.601  0.00  0.00    -0.650 OA
BRANCH  53  55
HETATM   55  O   UNK     0     -32.148  11.289   3.583  0.00  0.00    -0.776 OA
HETATM   56  H   UNK     0     -32.708  10.625   4.064  0.00  0.00     0.167 HD
ENDBRANCH  53  55
ENDBRANCH  52  53
ENDBRANCH  51  52
ENDBRANCH  18  51
TORSDOF 16
ENDMDL
MODEL 12
REMARK VINA RESULT:      -9.0     30.093     33.336
REMARK  16 active torsions:
REMARK  status: ('A' for Active; 'I' for Inactive)
REMARK    1  A    between atoms: C_6  and  C_7 
REMARK    2  A    between atoms: C_7  and  C_8 
REMARK    3  A    between atoms: C_8  and  C_9 
REMARK    4  A    between atoms: C_9  and  O_11 
REMARK    5  A    between atoms: C_16  and  C_17 
REMARK    6  A    between atoms: C_17  and  C_18 
REMARK    7  A    between atoms: C_18  and  C_19 
REMARK    8  A    between atoms: C_19  and  O_21 
REMARK    9  A    between atoms: C_28  and  C_29 
REMARK   10  A    between atoms: C_29  and  C_30 
REMARK   11  A    between atoms: C_30  and  C_31 
REMARK   12  A    between atoms: C_31  and  O_33 
REMARK   13  A    between atoms: C_42  and  C_43 
REMARK   14  A    between atoms: C_43  and  C_44 
REMARK   15  A    between atoms: C_44  and  C_45 
REMARK   16  A    between atoms: C_45  and  O_47 
ROOT
HETATM    1  C   UNK     0     -27.029  21.191   7.493  0.00  0.00     0.051 C 
HETATM    2  C   UNK     0     -26.093  20.319   8.306  0.00  0.00    -0.031 A 
HETATM    3  C   UNK     0     -26.369  19.170   9.030  0.00  0.00     0.021 A 
HETATM    4  N   UNK     0     -25.231  18.741   9.626  0.00  0.00    -0.361 N 
HETATM    5  C   UNK     0     -24.235  19.586   9.290  0.00  0.00     0.022 A 
HETATM    6  C   UNK     0     -24.740  20.587   8.467  0.00  0.00    -0.027 A 
HETATM    7  C   UNK     0     -22.774  19.509   9.606  0.00  0.00     0.115 C 
HETATM    8  C   UNK     0     -22.122  18.142   9.487  0.00  0.00     0.021 A 
HETATM    9  N   UNK     0     -22.379  17.168   8.601  0.00  0.00    -0.361 N 
HETATM   10  C   UNK     0     -21.627  16.096   8.927  0.00  0.00     0.022 A 
HETATM   11  C   UNK     0     -20.857  16.391  10.048  0.00  0.00    -0.027 A 
HETATM   12  C   UNK     0     -21.164  17.679  10.406  0.00  0.00    -0.031 A 
HETATM   13  C   UNK     0     -20.561  18.429  11.572  0.00  0.00     0.051 C 
HETATM   14  C   UNK     0     -21.643  14.738   8.230  0.00  0.00     0.115 C 
HETATM   15  C   UNK     0     -22.992  14.039   8.274  0.00  0.00     0.021 A 
HETATM   16  N   UNK     0     -24.168  14.493   7.802  0.00  0.00    -0.361 N 
HETATM   17  C   UNK     0     -25.128  13.614   8.098  0.00  0.00     0.022 A 
HETATM   18  C   UNK     0     -24.548  12.531   8.788  0.00  0.00    -0.027 A 
HETATM   19  C   UNK     0     -23.209  12.808   8.891  0.00  0.00    -0.031 A 
HETATM   20  C   UNK     0     -22.201  11.877   9.538  0.00  0.00     0.051 C 
HETATM   21  C   UNK     0     -26.619  13.684   7.857  0.00  0.00     0.115 C 
HETATM   22  C   UNK     0     -27.273  15.044   7.929  0.00  0.00     0.022 A 
HETATM   23  N   UNK     0     -27.034  16.035   8.798  0.00  0.00    -0.361 N 
HETATM   24  C   UNK     0     -27.736  17.118   8.408  0.00  0.00     0.021 A 
HETATM   25  C   UNK     0     -28.452  16.814   7.266  0.00  0.00    -0.031 A 
HETATM   26  C   UNK     0     -29.411  17.686   6.482  0.00  0.00     0.051 C 
HETATM   27  C   UNK     0     -28.172  15.492   6.940  0.00  0.00    -0.027 A 
HETATM   28  C   UNK     0     -27.718  18.508   9.021  0.00  0.00     0.115 C 
HETATM   29  H   UNK     0     -25.149  17.866  10.312  0.00  0.00     0.165 HD
HETATM   30  H   UNK     0     -23.054  17.251   7.714  0.00  0.00     0.165 HD
HETATM   31  H   UNK     0     -24.317  15.430   7.206  0.00  0.00     0.165 HD
HETATM   32  H   UNK     0     -26.401  15.966   9.720  0.00  0.00     0.165 HD
ENDROOT
BRANCH   6  33
HETATM   33  C   UNK     0     -24.044  21.764   7.832  0.00  0.00     0.051 C 
BRANCH  33  34
HETATM   34  C   UNK     0     -23.737  22.824   8.864  0.00  0.00     0.114 C 
BRANCH  34  35
HETATM   35  C   UNK     0     -22.433  23.445   8.492  0.00  0.00     0.139 C 
HETATM   36  O   UNK     0     -21.346  22.869   8.787  0.00  0.00    -0.650 OA
BRANCH  35  37
HETATM   37  O   UNK     0     -22.346  24.656   7.816  0.00  0.00    -0.776 OA
HETATM   38  H   UNK     0     -22.378  25.540   8.297  0.00  0.00     0.167 HD
ENDBRANCH  35  37
ENDBRANCH  34  35
ENDBRANCH  33  34
ENDBRANCH   6  33
BRANCH  27  39
HETATM   39  C   UNK     0     -28.820  14.783   5.803  0.00  0.00     0.051 C 
BRANCH  39  40
HETATM   40  C   UNK     0     -29.918  13.862   6.094  0.00  0.00     0.114 C 
BRANCH  40  41
HETATM   41  C   UNK     0     -29.690  12.501   6.523  0.00  0.00     0.139 C 
HETATM   42  O   UNK     0     -29.393  11.581   5.749  0.00  0.00    -0.650 OA
BRANCH  41  43
HETATM   43  O   UNK     0     -29.808  12.182   7.906  0.00  0.00    -0.776 OA
HETATM   44  H   UNK     0     -30.446  12.779   8.420  0.00  0.00     0.167 HD
ENDBRANCH  41  43
ENDBRANCH  40  41
ENDBRANCH  39  40
ENDBRANCH  27  39
BRANCH  11  45
HETATM   45  C   UNK     0     -19.866  15.515  10.767  0.00  0.00     0.051 C 
BRANCH  45  46
HETATM   46  C   UNK     0     -20.457  14.705  11.863  0.00  0.00     0.114 C 
BRANCH  46  47
HETATM   47  C   UNK     0     -19.775  13.379  11.849  0.00  0.00     0.139 C 
HETATM   48  O   UNK     0     -19.929  12.623  12.818  0.00  0.00    -0.650 OA
BRANCH  47  49
HETATM   49  O   UNK     0     -18.991  13.004  10.787  0.00  0.00    -0.776 OA
HETATM   50  H   UNK     0     -18.023  13.331  10.681  0.00  0.00     0.167 HD
ENDBRANCH  47  49
ENDBRANCH  46  47
ENDBRANCH  45  46
ENDBRANCH  11  45
BRANCH  18  51
HETATM   51  C   UNK     0     -25.228  11.289   9.303  0.00  0.00     0.051 C 
BRANCH  51  52
HETATM   52  C   UNK     0     -25.525  10.429   8.083  0.00  0.00     0.114 C 
BRANCH  52  53
HETATM   53  C   UNK     0     -26.953  10.066   8.000  0.00  0.00     0.139 C 
HETATM   54  O   UNK     0     -27.706  10.282   8.963  0.00  0.00    -0.650 OA
BRANCH  53  55
HETATM   55  O   UNK     0     -27.442   9.487   6.855  0.00  0.00    -0.776 OA
HETATM   56  H   UNK     0     -28.277   8.955   6.780  0.00  0.00     0.167 HD
ENDBRANCH  53  55
ENDBRANCH  52  53
ENDBRANCH  51  52
ENDBRANCH  18  51
TORSDOF 16
ENDMDL
MODEL 13
REMARK VINA RESULT:      -8.9     30.513     33.103
REMARK  16 active torsions:
REMARK  status: ('A' for Active; 'I' for Inactive)
REMARK    1  A    between atoms: C_6  and  C_7 
REMARK    2  A    between atoms: C_7  and  C_8 
REMARK    3  A    between atoms: C_8  and  C_9 
REMARK    4  A    between atoms: C_9  and  O_11 
REMARK    5  A    between atoms: C_16  and  C_17 
REMARK    6  A    between atoms: C_17  and  C_18 
REMARK    7  A    between atoms: C_18  and  C_19 
REMARK    8  A    between atoms: C_19  and  O_21 
REMARK    9  A    between atoms: C_28  and  C_29 
REMARK   10  A    between atoms: C_29  and  C_30 
REMARK   11  A    between atoms: C_30  and  C_31 
REMARK   12  A    between atoms: C_31  and  O_33 
REMARK   13  A    between atoms: C_42  and  C_43 
REMARK   14  A    between atoms: C_43  and  C_44 
REMARK   15  A    between atoms: C_44  and  C_45 
REMARK   16  A    between atoms: C_45  and  O_47 
ROOT
HETATM    1  C   UNK     0     -20.999  16.589  12.322  0.00  0.00     0.051 C 
HETATM    2  C   UNK     0     -21.921  17.072  11.221  0.00  0.00    -0.031 A 
HETATM    3  C   UNK     0     -22.071  16.597   9.927  0.00  0.00     0.021 A 
HETATM    4  N   UNK     0     -22.990  17.354   9.283  0.00  0.00    -0.361 N 
HETATM    5  C   UNK     0     -23.437  18.295  10.140  0.00  0.00     0.022 A 
HETATM    6  C   UNK     0     -22.787  18.150  11.361  0.00  0.00    -0.027 A 
HETATM    7  C   UNK     0     -24.516  19.316   9.956  0.00  0.00     0.115 C 
HETATM    8  C   UNK     0     -25.786  18.848   9.267  0.00  0.00     0.021 A 
HETATM    9  N   UNK     0     -26.391  17.653   9.351  0.00  0.00    -0.361 N 
HETATM   10  C   UNK     0     -27.437  17.652   8.497  0.00  0.00     0.022 A 
HETATM   11  C   UNK     0     -27.513  18.883   7.852  0.00  0.00    -0.027 A 
HETATM   12  C   UNK     0     -26.476  19.641   8.333  0.00  0.00    -0.031 A 
HETATM   13  C   UNK     0     -26.166  21.062   7.917  0.00  0.00     0.051 C 
HETATM   14  C   UNK     0     -28.370  16.478   8.217  0.00  0.00     0.115 C 
HETATM   15  C   UNK     0     -27.668  15.254   7.651  0.00  0.00     0.021 A 
HETATM   16  N   UNK     0     -26.664  14.552   8.210  0.00  0.00    -0.361 N 
HETATM   17  C   UNK     0     -26.278  13.592   7.366  0.00  0.00     0.022 A 
HETATM   18  C   UNK     0     -27.074  13.667   6.206  0.00  0.00    -0.027 A 
HETATM   19  C   UNK     0     -27.941  14.711   6.398  0.00  0.00    -0.031 A 
HETATM   20  C   UNK     0     -29.007  15.117   5.396  0.00  0.00     0.051 C 
HETATM   21  C   UNK     0     -25.153  12.589   7.485  0.00  0.00     0.115 C 
HETATM   22  C   UNK     0     -23.901  13.027   8.208  0.00  0.00     0.022 A 
HETATM   23  N   UNK     0     -23.278  14.211   8.146  0.00  0.00    -0.361 N 
HETATM   24  C   UNK     0     -22.288  14.217   9.061  0.00  0.00     0.021 A 
HETATM   25  C   UNK     0     -22.265  13.003   9.721  0.00  0.00    -0.031 A 
HETATM   26  C   UNK     0     -21.315  12.520  10.797  0.00  0.00     0.051 C 
HETATM   27  C   UNK     0     -23.288  12.224   9.192  0.00  0.00    -0.027 A 
HETATM   28  C   UNK     0     -21.367  15.368   9.427  0.00  0.00     0.115 C 
HETATM   29  H   UNK     0     -23.289  17.243   8.215  0.00  0.00     0.165 HD
HETATM   30  H   UNK     0     -26.113  16.826  10.049  0.00  0.00     0.165 HD
HETATM   31  H   UNK     0     -26.251  14.705   9.241  0.00  0.00     0.165 HD
HETATM   32  H   UNK     0     -23.505  15.039   7.425  0.00  0.00     0.165 HD
ENDROOT
BRANCH   6  33
HETATM   33  C   UNK     0     -22.922  18.947  12.634  0.00  0.00     0.051 C 
BRANCH  33  34
HETATM   34  C   UNK     0     -22.061  20.187  12.581  0.00  0.00     0.114 C 
BRANCH  34  35
HETATM   35  C   UNK     0     -22.687  21.203  13.476  0.00  0.00     0.139 C 
HETATM   36  O   UNK     0     -22.701  22.423  13.143  0.00  0.00    -0.650 OA
BRANCH  35  37
HETATM   37  O   UNK     0     -23.275  20.870  14.691  0.00  0.00    -0.776 OA
HETATM   38  H   UNK     0     -23.090  19.994  15.152  0.00  0.00     0.167 HD
ENDBRANCH  35  37
ENDBRANCH  34  35
ENDBRANCH  33  34
ENDBRANCH   6  33
BRANCH  27  39
HETATM   39  C   UNK     0     -23.532  10.816   9.606  0.00  0.00     0.051 C 
BRANCH  39  40
HETATM   40  C   UNK     0     -24.650  10.541  10.507  0.00  0.00     0.114 C 
BRANCH  40  41
HETATM   41  C   UNK     0     -24.482  10.458  11.941  0.00  0.00     0.139 C 
HETATM   42  O   UNK     0     -23.386  10.561  12.508  0.00  0.00    -0.650 OA
BRANCH  41  43
HETATM   43  O   UNK     0     -25.628  10.248  12.760  0.00  0.00    -0.776 OA
HETATM   44  H   UNK     0     -26.309  10.997  12.727  0.00  0.00     0.167 HD
ENDBRANCH  41  43
ENDBRANCH  40  41
ENDBRANCH  39  40
ENDBRANCH  27  39
BRANCH  11  45
HETATM   45  C   UNK     0     -28.511  19.349   6.827  0.00  0.00     0.051 C 
BRANCH  45  46
HETATM   46  C   UNK     0     -28.481  18.579   5.558  0.00  0.00     0.114 C 
BRANCH  46  47
HETATM   47  C   UNK     0     -29.168  19.404   4.524  0.00  0.00     0.139 C 
HETATM   48  O   UNK     0     -30.304  19.070   4.157  0.00  0.00    -0.650 OA
BRANCH  47  49
HETATM   49  O   UNK     0     -28.557  20.509   3.987  0.00  0.00    -0.776 OA
HETATM   50  H   UNK     0     -28.356  21.346   4.547  0.00  0.00     0.167 HD
ENDBRANCH  47  49
ENDBRANCH  46  47
ENDBRANCH  45  46
ENDBRANCH  11  45
BRANCH  18  51
HETATM   51  C   UNK     0     -27.024  12.779   4.990  0.00  0.00     0.051 C 
BRANCH  51  52
HETATM   52  C   UNK     0     -28.086  11.709   5.201  0.00  0.00     0.114 C 
BRANCH  52  53
HETATM   53  C   UNK     0     -27.505  10.448   5.699  0.00  0.00     0.139 C 
HETATM   54  O   UNK     0     -26.421  10.043   5.250  0.00  0.00    -0.650 OA
BRANCH  53  55
HETATM   55  O   UNK     0     -28.171   9.725   6.658  0.00  0.00    -0.776 OA
HETATM   56  H   UNK     0     -27.962   8.796   6.940  0.00  0.00     0.167 HD
ENDBRANCH  53  55
ENDBRANCH  52  53
ENDBRANCH  51  52
ENDBRANCH  18  51
TORSDOF 16
ENDMDL
MODEL 14
REMARK VINA RESULT:      -8.8     29.867     34.260
REMARK  16 active torsions:
REMARK  status: ('A' for Active; 'I' for Inactive)
REMARK    1  A    between atoms: C_6  and  C_7 
REMARK    2  A    between atoms: C_7  and  C_8 
REMARK    3  A    between atoms: C_8  and  C_9 
REMARK    4  A    between atoms: C_9  and  O_11 
REMARK    5  A    between atoms: C_16  and  C_17 
REMARK    6  A    between atoms: C_17  and  C_18 
REMARK    7  A    between atoms: C_18  and  C_19 
REMARK    8  A    between atoms: C_19  and  O_21 
REMARK    9  A    between atoms: C_28  and  C_29 
REMARK   10  A    between atoms: C_29  and  C_30 
REMARK   11  A    between atoms: C_30  and  C_31 
REMARK   12  A    between atoms: C_31  and  O_33 
REMARK   13  A    between atoms: C_42  and  C_43 
REMARK   14  A    between atoms: C_43  and  C_44 
REMARK   15  A    between atoms: C_44  and  C_45 
REMARK   16  A    between atoms: C_45  and  O_47 
ROOT
HETATM    1  C   UNK     0     -25.570   9.925   8.973  0.00  0.00     0.051 C 
HETATM    2  C   UNK     0     -25.176  11.352   8.649  0.00  0.00    -0.031 A 
HETATM    3  C   UNK     0     -25.574  12.156   7.593  0.00  0.00     0.021 A 
HETATM    4  N   UNK     0     -24.944  13.351   7.686  0.00  0.00    -0.361 N 
HETATM    5  C   UNK     0     -24.160  13.330   8.784  0.00  0.00     0.022 A 
HETATM    6  C   UNK     0     -24.279  12.093   9.408  0.00  0.00    -0.027 A 
HETATM    7  C   UNK     0     -23.333  14.423   9.385  0.00  0.00     0.115 C 
HETATM    8  C   UNK     0     -23.964  15.803   9.439  0.00  0.00     0.021 A 
HETATM    9  N   UNK     0     -25.248  16.128   9.650  0.00  0.00    -0.361 N 
HETATM   10  C   UNK     0     -25.369  17.466   9.521  0.00  0.00     0.022 A 
HETATM   11  C   UNK     0     -24.127  18.020   9.227  0.00  0.00    -0.027 A 
HETATM   12  C   UNK     0     -23.236  16.978   9.175  0.00  0.00    -0.031 A 
HETATM   13  C   UNK     0     -21.757  17.105   8.889  0.00  0.00     0.051 C 
HETATM   14  C   UNK     0     -26.665  18.267   9.615  0.00  0.00     0.115 C 
HETATM   15  C   UNK     0     -27.703  17.885   8.573  0.00  0.00     0.021 A 
HETATM   16  N   UNK     0     -28.258  16.675   8.371  0.00  0.00    -0.361 N 
HETATM   17  C   UNK     0     -29.071  16.736   7.314  0.00  0.00     0.022 A 
HETATM   18  C   UNK     0     -29.052  18.051   6.808  0.00  0.00    -0.027 A 
HETATM   19  C   UNK     0     -28.192  18.761   7.606  0.00  0.00    -0.031 A 
HETATM   20  C   UNK     0     -27.906  20.241   7.430  0.00  0.00     0.051 C 
HETATM   21  C   UNK     0     -29.869  15.645   6.638  0.00  0.00     0.115 C 
HETATM   22  C   UNK     0     -29.274  14.257   6.616  0.00  0.00     0.022 A 
HETATM   23  N   UNK     0     -27.998  13.904   6.412  0.00  0.00    -0.361 N 
HETATM   24  C   UNK     0     -27.886  12.577   6.622  0.00  0.00     0.021 A 
HETATM   25  C   UNK     0     -29.122  12.061   6.960  0.00  0.00    -0.031 A 
HETATM   26  C   UNK     0     -29.509  10.625   7.248  0.00  0.00     0.051 C 
HETATM   27  C   UNK     0     -30.027  13.117   6.962  0.00  0.00    -0.027 A 
HETATM   28  C   UNK     0     -26.622  11.736   6.601  0.00  0.00     0.115 C 
HETATM   29  H   UNK     0     -25.027  14.188   6.954  0.00  0.00     0.165 HD
HETATM   30  H   UNK     0     -26.063  15.420   9.941  0.00  0.00     0.165 HD
HETATM   31  H   UNK     0     -28.111  15.771   9.017  0.00  0.00     0.165 HD
HETATM   32  H   UNK     0     -27.171  14.583   6.075  0.00  0.00     0.165 HD
ENDROOT
BRANCH   6  33
HETATM   33  C   UNK     0     -23.612  11.567  10.654  0.00  0.00     0.051 C 
BRANCH  33  34
HETATM   34  C   UNK     0     -22.192  11.144  10.363  0.00  0.00     0.114 C 
BRANCH  34  35
HETATM   35  C   UNK     0     -22.189   9.660  10.216  0.00  0.00     0.139 C 
HETATM   36  O   UNK     0     -22.854   8.939  11.016  0.00  0.00    -0.650 OA
BRANCH  35  37
HETATM   37  O   UNK     0     -21.476   9.007   9.218  0.00  0.00    -0.776 OA
HETATM   38  H   UNK     0     -20.477   8.882   9.269  0.00  0.00     0.167 HD
ENDBRANCH  35  37
ENDBRANCH  34  35
ENDBRANCH  33  34
ENDBRANCH   6  33
BRANCH  27  39
HETATM   39  C   UNK     0     -31.483  12.937   7.213  0.00  0.00     0.051 C 
BRANCH  39  40
HETATM   40  C   UNK     0     -32.353  12.651   6.072  0.00  0.00     0.114 C 
BRANCH  40  41
HETATM   41  C   UNK     0     -31.905  12.796   4.706  0.00  0.00     0.139 C 
HETATM   42  O   UNK     0     -31.973  13.859   4.074  0.00  0.00    -0.650 OA
BRANCH  41  43
HETATM   43  O   UNK     0     -31.355  11.667   4.035  0.00  0.00    -0.776 OA
HETATM   44  H   UNK     0     -31.271  10.838   4.610  0.00  0.00     0.167 HD
ENDBRANCH  41  43
ENDBRANCH  40  41
ENDBRANCH  39  40
ENDBRANCH  27  39
BRANCH  11  45
HETATM   45  C   UNK     0     -23.768  19.464   9.005  0.00  0.00     0.051 C 
BRANCH  45  46
HETATM   46  C   UNK     0     -23.538  20.231  10.256  0.00  0.00     0.114 C 
BRANCH  46  47
HETATM   47  C   UNK     0     -22.063  20.374  10.422  0.00  0.00     0.139 C 
HETATM   48  O   UNK     0     -21.550  20.014  11.491  0.00  0.00    -0.650 OA
BRANCH  47  49
HETATM   49  O   UNK     0     -21.289  20.893   9.414  0.00  0.00    -0.776 OA
HETATM   50  H   UNK     0     -20.422  21.408   9.604  0.00  0.00     0.167 HD
ENDBRANCH  47  49
ENDBRANCH  46  47
ENDBRANCH  45  46
ENDBRANCH  11  45
BRANCH  18  51
HETATM   51  C   UNK     0     -29.827  18.606   5.642  0.00  0.00     0.051 C 
BRANCH  51  52
HETATM   52  C   UNK     0     -29.020  18.272   4.396  0.00  0.00     0.114 C 
BRANCH  52  53
HETATM   53  C   UNK     0     -28.955  19.411   3.461  0.00  0.00     0.139 C 
HETATM   54  O   UNK     0     -29.293  19.262   2.275  0.00  0.00    -0.650 OA
BRANCH  53  55
HETATM   55  O   UNK     0     -28.516  20.634   3.908  0.00  0.00    -0.776 OA
HETATM   56  H   UNK     0     -27.694  21.104   3.609  0.00  0.00     0.167 HD
ENDBRANCH  53  55
ENDBRANCH  52  53
ENDBRANCH  51  52
ENDBRANCH  18  51
TORSDOF 16
ENDMDL
MODEL 15
REMARK VINA RESULT:      -8.8      2.584      7.206
REMARK  16 active torsions:
REMARK  status: ('A' for Active; 'I' for Inactive)
REMARK    1  A    between atoms: C_6  and  C_7 
REMARK    2  A    between atoms: C_7  and  C_8 
REMARK    3  A    between atoms: C_8  and  C_9 
REMARK    4  A    between atoms: C_9  and  O_11 
REMARK    5  A    between atoms: C_16  and  C_17 
REMARK    6  A    between atoms: C_17  and  C_18 
REMARK    7  A    between atoms: C_18  and  C_19 
REMARK    8  A    between atoms: C_19  and  O_21 
REMARK    9  A    between atoms: C_28  and  C_29 
REMARK   10  A    between atoms: C_29  and  C_30 
REMARK   11  A    between atoms: C_30  and  C_31 
REMARK   12  A    between atoms: C_31  and  O_33 
REMARK   13  A    between atoms: C_42  and  C_43 
REMARK   14  A    between atoms: C_43  and  C_44 
REMARK   15  A    between atoms: C_44  and  C_45 
REMARK   16  A    between atoms: C_45  and  O_47 
ROOT
HETATM    1  C   UNK     0      -5.110   3.467 -13.507  0.00  0.00     0.051 C 
HETATM    2  C   UNK     0      -4.485   3.847 -12.180  0.00  0.00    -0.031 A 
HETATM    3  C   UNK     0      -4.269   3.068 -11.054  0.00  0.00     0.021 A 
HETATM    4  N   UNK     0      -3.710   3.834 -10.088  0.00  0.00    -0.361 N 
HETATM    5  C   UNK     0      -3.557   5.083 -10.576  0.00  0.00     0.022 A 
HETATM    6  C   UNK     0      -4.035   5.126 -11.882  0.00  0.00    -0.027 A 
HETATM    7  C   UNK     0      -2.908   6.277  -9.950  0.00  0.00     0.115 C 
HETATM    8  C   UNK     0      -1.603   6.035  -9.211  0.00  0.00     0.021 A 
HETATM    9  N   UNK     0      -0.621   5.171  -9.510  0.00  0.00    -0.361 N 
HETATM   10  C   UNK     0       0.302   5.229  -8.527  0.00  0.00     0.022 A 
HETATM   11  C   UNK     0      -0.092   6.163  -7.573  0.00  0.00    -0.027 A 
HETATM   12  C   UNK     0      -1.292   6.675  -7.998  0.00  0.00    -0.031 A 
HETATM   13  C   UNK     0      -2.097   7.731  -7.275  0.00  0.00     0.051 C 
HETATM   14  C   UNK     0       1.561   4.373  -8.421  0.00  0.00     0.115 C 
HETATM   15  C   UNK     0       1.285   2.881  -8.327  0.00  0.00     0.021 A 
HETATM   16  N   UNK     0       0.623   2.112  -9.211  0.00  0.00    -0.361 N 
HETATM   17  C   UNK     0       0.533   0.870  -8.731  0.00  0.00     0.022 A 
HETATM   18  C   UNK     0       1.176   0.825  -7.478  0.00  0.00    -0.027 A 
HETATM   19  C   UNK     0       1.644   2.091  -7.237  0.00  0.00    -0.031 A 
HETATM   20  C   UNK     0       2.436   2.477  -6.002  0.00  0.00     0.051 C 
HETATM   21  C   UNK     0      -0.168  -0.344  -9.298  0.00  0.00     0.115 C 
HETATM   22  C   UNK     0      -1.444  -0.113 -10.074  0.00  0.00     0.022 A 
HETATM   23  N   UNK     0      -2.438   0.743  -9.802  0.00  0.00    -0.361 N 
HETATM   24  C   UNK     0      -3.307   0.724 -10.832  0.00  0.00     0.021 A 
HETATM   25  C   UNK     0      -2.867  -0.173 -11.787  0.00  0.00    -0.031 A 
HETATM   26  C   UNK     0      -3.520  -0.569 -13.095  0.00  0.00     0.051 C 
HETATM   27  C   UNK     0      -1.677  -0.722 -11.324  0.00  0.00    -0.027 A 
HETATM   28  C   UNK     0      -4.540   1.590 -11.024  0.00  0.00     0.115 C 
HETATM   29  H   UNK     0      -3.463   3.498  -9.054  0.00  0.00     0.165 HD
HETATM   30  H   UNK     0      -0.551   4.555 -10.440  0.00  0.00     0.165 HD
HETATM   31  H   UNK     0       0.252   2.440 -10.217  0.00  0.00     0.165 HD
HETATM   32  H   UNK     0      -2.557   1.337  -8.859  0.00  0.00     0.165 HD
ENDROOT
BRANCH   6  33
HETATM   33  C   UNK     0      -4.097   6.277 -12.854  0.00  0.00     0.051 C 
BRANCH  33  34
HETATM   34  C   UNK     0      -4.549   7.540 -12.160  0.00  0.00     0.114 C 
BRANCH  34  35
HETATM   35  C   UNK     0      -5.315   8.346 -13.154  0.00  0.00     0.139 C 
HETATM   36  O   UNK     0      -5.009   8.303 -14.381  0.00  0.00    -0.650 OA
BRANCH  35  37
HETATM   37  O   UNK     0      -6.380   9.163 -12.794  0.00  0.00    -0.776 OA
HETATM   38  H   UNK     0      -6.391  10.148 -13.003  0.00  0.00     0.167 HD
ENDBRANCH  35  37
ENDBRANCH  34  35
ENDBRANCH  33  34
ENDBRANCH   6  33
BRANCH  27  39
HETATM   39  C   UNK     0      -0.938  -1.788 -12.053  0.00  0.00     0.051 C 
BRANCH  39  40
HETATM   40  C   UNK     0       0.246  -1.409 -12.823  0.00  0.00     0.114 C 
BRANCH  40  41
HETATM   41  C   UNK     0       0.404  -0.091 -13.395  0.00  0.00     0.139 C 
HETATM   42  O   UNK     0      -0.311   0.351 -14.304  0.00  0.00    -0.650 OA
BRANCH  41  43
HETATM   43  O   UNK     0       1.433   0.759 -12.898  0.00  0.00    -0.776 OA
HETATM   44  H   UNK     0       2.366   0.368 -12.960  0.00  0.00     0.167 HD
ENDBRANCH  41  43
ENDBRANCH  40  41
ENDBRANCH  39  40
ENDBRANCH  27  39
BRANCH  11  45
HETATM   45  C   UNK     0       0.615   6.575  -6.310  0.00  0.00     0.051 C 
BRANCH  45  46
HETATM   46  C   UNK     0       0.174   7.886  -5.768  0.00  0.00     0.114 C 
BRANCH  46  47
HETATM   47  C   UNK     0       1.236   8.880  -6.095  0.00  0.00     0.139 C 
HETATM   48  O   UNK     0       2.291   8.855  -5.445  0.00  0.00    -0.650 OA
BRANCH  47  49
HETATM   49  O   UNK     0       1.051   9.804  -7.092  0.00  0.00    -0.776 OA
HETATM   50  H   UNK     0       0.246  10.441  -7.102  0.00  0.00     0.167 HD
ENDBRANCH  47  49
ENDBRANCH  46  47
ENDBRANCH  45  46
ENDBRANCH  11  45
BRANCH  18  51
HETATM   51  C   UNK     0       1.353  -0.363  -6.569  0.00  0.00     0.051 C 
BRANCH  51  52
HETATM   52  C   UNK     0      -0.019  -0.663  -5.986  0.00  0.00     0.114 C 
BRANCH  52  53
HETATM   53  C   UNK     0      -0.264  -2.114  -5.872  0.00  0.00     0.139 C 
HETATM   54  O   UNK     0       0.253  -2.760  -4.947  0.00  0.00    -0.650 OA
BRANCH  53  55
HETATM   55  O   UNK     0      -1.063  -2.743  -6.796  0.00  0.00    -0.776 OA
HETATM   56  H   UNK     0      -1.856  -2.351  -7.245  0.00  0.00     0.167 HD
ENDBRANCH  53  55
ENDBRANCH  52  53
ENDBRANCH  51  52
ENDBRANCH  18  51
TORSDOF 16
ENDMDL
MODEL 16
REMARK VINA RESULT:      -8.6     30.358     34.020
REMARK  16 active torsions:
REMARK  status: ('A' for Active; 'I' for Inactive)
REMARK    1  A    between atoms: C_6  and  C_7 
REMARK    2  A    between atoms: C_7  and  C_8 
REMARK    3  A    between atoms: C_8  and  C_9 
REMARK    4  A    between atoms: C_9  and  O_11 
REMARK    5  A    between atoms: C_16  and  C_17 
REMARK    6  A    between atoms: C_17  and  C_18 
REMARK    7  A    between atoms: C_18  and  C_19 
REMARK    8  A    between atoms: C_19  and  O_21 
REMARK    9  A    between atoms: C_28  and  C_29 
REMARK   10  A    between atoms: C_29  and  C_30 
REMARK   11  A    between atoms: C_30  and  C_31 
REMARK   12  A    between atoms: C_31  and  O_33 
REMARK   13  A    between atoms: C_42  and  C_43 
REMARK   14  A    between atoms: C_43  and  C_44 
REMARK   15  A    between atoms: C_44  and  C_45 
REMARK   16  A    between atoms: C_45  and  O_47 
ROOT
HETATM    1  C   UNK     0     -19.891  18.145  11.285  0.00  0.00     0.051 C 
HETATM    2  C   UNK     0     -21.095  17.250  11.073  0.00  0.00    -0.031 A 
HETATM    3  C   UNK     0     -22.443  17.549  11.186  0.00  0.00     0.021 A 
HETATM    4  N   UNK     0     -23.166  16.431  10.935  0.00  0.00    -0.361 N 
HETATM    5  C   UNK     0     -22.307  15.428  10.657  0.00  0.00     0.022 A 
HETATM    6  C   UNK     0     -21.003  15.906  10.737  0.00  0.00    -0.027 A 
HETATM    7  C   UNK     0     -22.591  14.024  10.225  0.00  0.00     0.115 C 
HETATM    8  C   UNK     0     -23.685  13.838   9.189  0.00  0.00     0.021 A 
HETATM    9  N   UNK     0     -24.003  14.633   8.156  0.00  0.00    -0.361 N 
HETATM   10  C   UNK     0     -25.100  14.125   7.557  0.00  0.00     0.022 A 
HETATM   11  C   UNK     0     -25.496  12.965   8.217  0.00  0.00    -0.027 A 
HETATM   12  C   UNK     0     -24.608  12.778   9.246  0.00  0.00    -0.031 A 
HETATM   13  C   UNK     0     -24.643  11.633  10.233  0.00  0.00     0.051 C 
HETATM   14  C   UNK     0     -25.849  14.738   6.377  0.00  0.00     0.115 C 
HETATM   15  C   UNK     0     -26.414  16.121   6.657  0.00  0.00     0.021 A 
HETATM   16  N   UNK     0     -25.739  17.224   7.030  0.00  0.00    -0.361 N 
HETATM   17  C   UNK     0     -26.605  18.216   7.246  0.00  0.00     0.022 A 
HETATM   18  C   UNK     0     -27.907  17.740   6.993  0.00  0.00    -0.027 A 
HETATM   19  C   UNK     0     -27.773  16.426   6.624  0.00  0.00    -0.031 A 
HETATM   20  C   UNK     0     -28.939  15.539   6.226  0.00  0.00     0.051 C 
HETATM   21  C   UNK     0     -26.366  19.624   7.745  0.00  0.00     0.115 C 
HETATM   22  C   UNK     0     -25.251  19.830   8.743  0.00  0.00     0.022 A 
HETATM   23  N   UNK     0     -24.910  19.053   9.779  0.00  0.00    -0.361 N 
HETATM   24  C   UNK     0     -23.770  19.535  10.312  0.00  0.00     0.021 A 
HETATM   25  C   UNK     0     -23.372  20.656   9.609  0.00  0.00    -0.031 A 
HETATM   26  C   UNK     0     -22.184  21.562   9.853  0.00  0.00     0.051 C 
HETATM   27  C   UNK     0     -24.305  20.865   8.600  0.00  0.00    -0.027 A 
HETATM   28  C   UNK     0     -22.949  18.940  11.444  0.00  0.00     0.115 C 
HETATM   29  H   UNK     0     -24.275  16.348  10.996  0.00  0.00     0.165 HD
HETATM   30  H   UNK     0     -23.424  15.527   7.816  0.00  0.00     0.165 HD
HETATM   31  H   UNK     0     -24.624  17.319   7.096  0.00  0.00     0.165 HD
HETATM   32  H   UNK     0     -25.495  18.181  10.170  0.00  0.00     0.165 HD
ENDROOT
BRANCH   6  33
HETATM   33  C   UNK     0     -19.693  15.190  10.523  0.00  0.00     0.051 C 
BRANCH  33  34
HETATM   34  C   UNK     0     -19.171  14.629  11.825  0.00  0.00     0.114 C 
BRANCH  34  35
HETATM   35  C   UNK     0     -19.507  13.177  11.853  0.00  0.00     0.139 C 
HETATM   36  O   UNK     0     -19.959  12.647  12.909  0.00  0.00    -0.650 OA
BRANCH  35  37
HETATM   37  O   UNK     0     -19.349  12.350  10.747  0.00  0.00    -0.776 OA
HETATM   38  H   UNK     0     -18.763  11.531  10.771  0.00  0.00     0.167 HD
ENDBRANCH  35  37
ENDBRANCH  34  35
ENDBRANCH  33  34
ENDBRANCH   6  33
BRANCH  27  39
HETATM   39  C   UNK     0     -24.250  22.029   7.674  0.00  0.00     0.051 C 
BRANCH  39  40
HETATM   40  C   UNK     0     -24.885  23.279   8.092  0.00  0.00     0.114 C 
BRANCH  40  41
HETATM   41  C   UNK     0     -26.016  23.841   7.389  0.00  0.00     0.139 C 
HETATM   42  O   UNK     0     -25.908  24.653   6.459  0.00  0.00    -0.650 OA
BRANCH  41  43
HETATM   43  O   UNK     0     -27.331  23.452   7.771  0.00  0.00    -0.776 OA
HETATM   44  H   UNK     0     -27.448  23.292   8.765  0.00  0.00     0.167 HD
ENDBRANCH  41  43
ENDBRANCH  40  41
ENDBRANCH  39  40
ENDBRANCH  27  39
BRANCH  11  45
HETATM   45  C   UNK     0     -26.653  12.053   7.908  0.00  0.00     0.051 C 
BRANCH  45  46
HETATM   46  C   UNK     0     -26.269  10.801   7.208  0.00  0.00     0.114 C 
BRANCH  46  47
HETATM   47  C   UNK     0     -26.977   9.680   7.889  0.00  0.00     0.139 C 
HETATM   48  O   UNK     0     -27.232   8.657   7.237  0.00  0.00    -0.650 OA
BRANCH  47  49
HETATM   49  O   UNK     0     -27.340   9.776   9.208  0.00  0.00    -0.776 OA
HETATM   50  H   UNK     0     -28.237   9.415   9.555  0.00  0.00     0.167 HD
ENDBRANCH  47  49
ENDBRANCH  46  47
ENDBRANCH  45  46
ENDBRANCH  11  45
BRANCH  18  51
HETATM   51  C   UNK     0     -29.205  18.500   7.077  0.00  0.00     0.051 C 
BRANCH  51  52
HETATM   52  C   UNK     0     -29.459  19.064   5.687  0.00  0.00     0.114 C 
BRANCH  52  53
HETATM   53  C   UNK     0     -30.756  18.617   5.142  0.00  0.00     0.139 C 
HETATM   54  O   UNK     0     -31.521  17.934   5.840  0.00  0.00    -0.650 OA
BRANCH  53  55
HETATM   55  O   UNK     0     -31.107  18.959   3.859  0.00  0.00    -0.776 OA
HETATM   56  H   UNK     0     -31.311  18.327   3.121  0.00  0.00     0.167 HD
ENDBRANCH  53  55
ENDBRANCH  52  53
ENDBRANCH  51  52
ENDBRANCH  18  51
TORSDOF 16
ENDMDL
MODEL 17
REMARK VINA RESULT:      -8.6     29.777     33.848
REMARK  16 active torsions:
REMARK  status: ('A' for Active; 'I' for Inactive)
REMARK    1  A    between atoms: C_6  and  C_7 
REMARK    2  A    between atoms: C_7  and  C_8 
REMARK    3  A    between atoms: C_8  and  C_9 
REMARK    4  A    between atoms: C_9  and  O_11 
REMARK    5  A    between atoms: C_16  and  C_17 
REMARK    6  A    between atoms: C_17  and  C_18 
REMARK    7  A    between atoms: C_18  and  C_19 
REMARK    8  A    between atoms: C_19  and  O_21 
REMARK    9  A    between atoms: C_28  and  C_29 
REMARK   10  A    between atoms: C_29  and  C_30 
REMARK   11  A    between atoms: C_30  and  C_31 
REMARK   12  A    between atoms: C_31  and  O_33 
REMARK   13  A    between atoms: C_42  and  C_43 
REMARK   14  A    between atoms: C_43  and  C_44 
REMARK   15  A    between atoms: C_44  and  C_45 
REMARK   16  A    between atoms: C_45  and  O_47 
ROOT
HETATM    1  C   UNK     0     -30.878  15.272   4.204  0.00  0.00     0.051 C 
HETATM    2  C   UNK     0     -30.238  15.684   5.514  0.00  0.00    -0.031 A 
HETATM    3  C   UNK     0     -29.853  14.900   6.590  0.00  0.00     0.021 A 
HETATM    4  N   UNK     0     -29.353  15.700   7.562  0.00  0.00    -0.361 N 
HETATM    5  C   UNK     0     -29.403  16.975   7.125  0.00  0.00     0.022 A 
HETATM    6  C   UNK     0     -29.954  17.002   5.849  0.00  0.00    -0.027 A 
HETATM    7  C   UNK     0     -28.892  18.224   7.773  0.00  0.00     0.115 C 
HETATM    8  C   UNK     0     -27.527  18.140   8.434  0.00  0.00     0.021 A 
HETATM    9  N   UNK     0     -26.452  17.436   8.047  0.00  0.00    -0.361 N 
HETATM   10  C   UNK     0     -25.493  17.586   8.984  0.00  0.00     0.022 A 
HETATM   11  C   UNK     0     -25.959  18.416   9.999  0.00  0.00    -0.027 A 
HETATM   12  C   UNK     0     -27.240  18.769   9.659  0.00  0.00    -0.031 A 
HETATM   13  C   UNK     0     -28.142  19.672  10.469  0.00  0.00     0.051 C 
HETATM   14  C   UNK     0     -24.123  16.912   8.988  0.00  0.00     0.115 C 
HETATM   15  C   UNK     0     -24.184  15.394   9.025  0.00  0.00     0.021 A 
HETATM   16  N   UNK     0     -24.781  14.574   8.140  0.00  0.00    -0.361 N 
HETATM   17  C   UNK     0     -24.670  13.314   8.566  0.00  0.00     0.022 A 
HETATM   18  C   UNK     0     -23.958  13.312   9.782  0.00  0.00    -0.027 A 
HETATM   19  C   UNK     0     -23.658  14.620  10.058  0.00  0.00    -0.031 A 
HETATM   20  C   UNK     0     -22.859  15.066  11.269  0.00  0.00     0.051 C 
HETATM   21  C   UNK     0     -25.226  12.036   7.978  0.00  0.00     0.115 C 
HETATM   22  C   UNK     0     -26.563  12.115   7.279  0.00  0.00     0.022 A 
HETATM   23  N   UNK     0     -27.649  12.810   7.640  0.00  0.00    -0.361 N 
HETATM   24  C   UNK     0     -28.563  12.710   6.654  0.00  0.00     0.021 A 
HETATM   25  C   UNK     0     -28.058  11.921   5.638  0.00  0.00    -0.031 A 
HETATM   26  C   UNK     0     -28.721  11.488   4.348  0.00  0.00     0.051 C 
HETATM   27  C   UNK     0     -26.779  11.529   6.015  0.00  0.00    -0.027 A 
HETATM   28  C   UNK     0     -29.914  13.399   6.565  0.00  0.00     0.115 C 
HETATM   29  H   UNK     0     -29.004  15.361   8.565  0.00  0.00     0.165 HD
HETATM   30  H   UNK     0     -26.350  16.872   7.087  0.00  0.00     0.165 HD
HETATM   31  H   UNK     0     -25.249  14.885   7.170  0.00  0.00     0.165 HD
HETATM   32  H   UNK     0     -27.797  13.344   8.615  0.00  0.00     0.165 HD
ENDROOT
BRANCH   6  33
HETATM   33  C   UNK     0     -30.230  18.170   4.935  0.00  0.00     0.051 C 
BRANCH  33  34
HETATM   34  C   UNK     0     -29.027  18.470   4.073  0.00  0.00     0.114 C 
BRANCH  34  35
HETATM   35  C   UNK     0     -28.973  19.948   3.883  0.00  0.00     0.139 C 
HETATM   36  O   UNK     0     -29.287  20.459   2.768  0.00  0.00    -0.650 OA
BRANCH  35  37
HETATM   37  O   UNK     0     -28.586  20.820   4.893  0.00  0.00    -0.776 OA
HETATM   38  H   UNK     0     -27.701  21.301   4.875  0.00  0.00     0.167 HD
ENDBRANCH  35  37
ENDBRANCH  34  35
ENDBRANCH  33  34
ENDBRANCH   6  33
BRANCH  27  39
HETATM   39  C   UNK     0     -25.941  10.607   5.201  0.00  0.00     0.051 C 
BRANCH  39  40
HETATM   40  C   UNK     0     -26.066   9.168   5.433  0.00  0.00     0.114 C 
BRANCH  40  41
HETATM   41  C   UNK     0     -26.262   8.615   6.754  0.00  0.00     0.139 C 
HETATM   42  O   UNK     0     -27.365   8.253   7.186  0.00  0.00    -0.650 OA
BRANCH  41  43
HETATM   43  O   UNK     0     -25.139   8.471   7.617  0.00  0.00    -0.776 OA
HETATM   44  H   UNK     0     -25.351   8.046   8.512  0.00  0.00     0.167 HD
ENDBRANCH  41  43
ENDBRANCH  40  41
ENDBRANCH  39  40
ENDBRANCH  27  39
BRANCH  11  45
HETATM   45  C   UNK     0     -25.246  18.875  11.243  0.00  0.00     0.051 C 
BRANCH  45  46
HETATM   46  C   UNK     0     -25.291  17.898  12.361  0.00  0.00     0.114 C 
BRANCH  46  47
HETATM   47  C   UNK     0     -24.405  18.422  13.440  0.00  0.00     0.139 C 
HETATM   48  O   UNK     0     -23.920  19.555  13.310  0.00  0.00    -0.650 OA
BRANCH  47  49
HETATM   49  O   UNK     0     -24.130  17.667  14.552  0.00  0.00    -0.776 OA
HETATM   50  H   UNK     0     -24.418  16.684  14.628  0.00  0.00     0.167 HD
ENDBRANCH  47  49
ENDBRANCH  46  47
ENDBRANCH  45  46
ENDBRANCH  11  45
BRANCH  18  51
HETATM   51  C   UNK     0     -23.566  12.125  10.624  0.00  0.00     0.051 C 
BRANCH  51  52
HETATM   52  C   UNK     0     -22.383  11.476   9.922  0.00  0.00     0.114 C 
BRANCH  52  53
HETATM   53  C   UNK     0     -22.583  10.026   9.733  0.00  0.00     0.139 C 
HETATM   54  O   UNK     0     -23.682   9.512   9.995  0.00  0.00    -0.650 OA
BRANCH  53  55
HETATM   55  O   UNK     0     -21.548   9.252   9.269  0.00  0.00    -0.776 OA
HETATM   56  H   UNK     0     -21.118   9.325   8.377  0.00  0.00     0.167 HD
ENDBRANCH  53  55
ENDBRANCH  52  53
ENDBRANCH  51  52
ENDBRANCH  18  51
TORSDOF 16
ENDMDL
MODEL 18
REMARK VINA RESULT:      -8.6     31.277     34.383
REMARK  16 active torsions:
REMARK  status: ('A' for Active; 'I' for Inactive)
REMARK    1  A    between atoms: C_6  and  C_7 
REMARK    2  A    between atoms: C_7  and  C_8 
REMARK    3  A    between atoms: C_8  and  C_9 
REMARK    4  A    between atoms: C_9  and  O_11 
REMARK    5  A    between atoms: C_16  and  C_17 
REMARK    6  A    between atoms: C_17  and  C_18 
REMARK    7  A    between atoms: C_18  and  C_19 
REMARK    8  A    between atoms: C_19  and  O_21 
REMARK    9  A    between atoms: C_28  and  C_29 
REMARK   10  A    between atoms: C_29  and  C_30 
REMARK   11  A    between atoms: C_30  and  C_31 
REMARK   12  A    between atoms: C_31  and  O_33 
REMARK   13  A    between atoms: C_42  and  C_43 
REMARK   14  A    between atoms: C_43  and  C_44 
REMARK   15  A    between atoms: C_44  and  C_45 
REMARK   16  A    between atoms: C_45  and  O_47 
ROOT
HETATM    1  C   UNK     0     -24.467  19.638  10.231  0.00  0.00     0.051 C 
HETATM    2  C   UNK     0     -24.921  18.209  10.009  0.00  0.00    -0.031 A 
HETATM    3  C   UNK     0     -26.195  17.717   9.777  0.00  0.00     0.021 A 
HETATM    4  N   UNK     0     -26.134  16.368   9.667  0.00  0.00    -0.361 N 
HETATM    5  C   UNK     0     -24.847  15.992   9.816  0.00  0.00     0.022 A 
HETATM    6  C   UNK     0     -24.061  17.118  10.034  0.00  0.00    -0.027 A 
HETATM    7  C   UNK     0     -24.232  14.633   9.689  0.00  0.00     0.115 C 
HETATM    8  C   UNK     0     -24.712  13.772   8.534  0.00  0.00     0.021 A 
HETATM    9  N   UNK     0     -25.066  14.154   7.297  0.00  0.00    -0.361 N 
HETATM   10  C   UNK     0     -25.514  13.067   6.634  0.00  0.00     0.022 A 
HETATM   11  C   UNK     0     -25.439  11.952   7.464  0.00  0.00    -0.027 A 
HETATM   12  C   UNK     0     -24.935  12.389   8.662  0.00  0.00    -0.031 A 
HETATM   13  C   UNK     0     -24.674  11.518   9.871  0.00  0.00     0.051 C 
HETATM   14  C   UNK     0     -26.079  13.045   5.217  0.00  0.00     0.115 C 
HETATM   15  C   UNK     0     -27.324  13.900   5.037  0.00  0.00     0.021 A 
HETATM   16  N   UNK     0     -27.452  15.222   5.257  0.00  0.00    -0.361 N 
HETATM   17  C   UNK     0     -28.721  15.580   5.050  0.00  0.00     0.022 A 
HETATM   18  C   UNK     0     -29.453  14.439   4.668  0.00  0.00    -0.027 A 
HETATM   19  C   UNK     0     -28.567  13.393   4.662  0.00  0.00    -0.031 A 
HETATM   20  C   UNK     0     -28.937  11.975   4.268  0.00  0.00     0.051 C 
HETATM   21  C   UNK     0     -29.393  16.922   5.230  0.00  0.00     0.115 C 
HETATM   22  C   UNK     0     -28.896  17.807   6.348  0.00  0.00     0.022 A 
HETATM   23  N   UNK     0     -28.533  17.453   7.588  0.00  0.00    -0.361 N 
HETATM   24  C   UNK     0     -28.017  18.536   8.204  0.00  0.00     0.021 A 
HETATM   25  C   UNK     0     -28.058  19.616   7.343  0.00  0.00    -0.031 A 
HETATM   26  C   UNK     0     -27.632  21.049   7.590  0.00  0.00     0.051 C 
HETATM   27  C   UNK     0     -28.616  19.175   6.149  0.00  0.00    -0.027 A 
HETATM   28  C   UNK     0     -27.389  18.609   9.585  0.00  0.00     0.115 C 
HETATM   29  H   UNK     0     -27.006  15.689   9.525  0.00  0.00     0.165 HD
HETATM   30  H   UNK     0     -24.953  15.182   6.872  0.00  0.00     0.165 HD
HETATM   31  H   UNK     0     -26.619  15.926   5.517  0.00  0.00     0.165 HD
HETATM   32  H   UNK     0     -28.678  16.445   8.056  0.00  0.00     0.165 HD
ENDROOT
BRANCH   6  33
HETATM   33  C   UNK     0     -22.576  17.235  10.263  0.00  0.00     0.051 C 
BRANCH  33  34
HETATM   34  C   UNK     0     -22.268  17.323  11.739  0.00  0.00     0.114 C 
BRANCH  34  35
HETATM   35  C   UNK     0     -21.204  16.320  12.034  0.00  0.00     0.139 C 
HETATM   36  O   UNK     0     -20.076  16.696  12.467  0.00  0.00    -0.650 OA
BRANCH  35  37
HETATM   37  O   UNK     0     -21.392  14.955  11.856  0.00  0.00    -0.776 OA
HETATM   38  H   UNK     0     -21.687  14.353  12.608  0.00  0.00     0.167 HD
ENDBRANCH  35  37
ENDBRANCH  34  35
ENDBRANCH  33  34
ENDBRANCH   6  33
BRANCH  27  39
HETATM   39  C   UNK     0     -28.889  20.078   4.998  0.00  0.00     0.051 C 
BRANCH  39  40
HETATM   40  C   UNK     0     -30.280  20.298   4.603  0.00  0.00     0.114 C 
BRANCH  40  41
HETATM   41  C   UNK     0     -30.645  20.713   3.267  0.00  0.00     0.139 C 
HETATM   42  O   UNK     0     -31.451  21.624   3.031  0.00  0.00    -0.650 OA
BRANCH  41  43
HETATM   43  O   UNK     0     -30.057  20.050   2.153  0.00  0.00    -0.776 OA
HETATM   44  H   UNK     0     -29.615  19.167   2.376  0.00  0.00     0.167 HD
ENDBRANCH  41  43
ENDBRANCH  40  41
ENDBRANCH  39  40
ENDBRANCH  27  39
BRANCH  11  45
HETATM   45  C   UNK     0     -25.818  10.527   7.163  0.00  0.00     0.051 C 
BRANCH  45  46
HETATM   46  C   UNK     0     -27.256  10.336   6.847  0.00  0.00     0.114 C 
BRANCH  46  47
HETATM   47  C   UNK     0     -28.032  10.761   8.048  0.00  0.00     0.139 C 
HETATM   48  O   UNK     0     -27.931  10.093   9.086  0.00  0.00    -0.650 OA
BRANCH  47  49
HETATM   49  O   UNK     0     -28.842  11.868   8.005  0.00  0.00    -0.776 OA
HETATM   50  H   UNK     0     -29.825  11.814   7.713  0.00  0.00     0.167 HD
ENDBRANCH  47  49
ENDBRANCH  46  47
ENDBRANCH  45  46
ENDBRANCH  11  45
BRANCH  18  51
HETATM   51  C   UNK     0     -30.913  14.353   4.307  0.00  0.00     0.051 C 
BRANCH  51  52
HETATM   52  C   UNK     0     -31.680  14.398   5.620  0.00  0.00     0.114 C 
BRANCH  52  53
HETATM   53  C   UNK     0     -32.061  13.049   6.081  0.00  0.00     0.139 C 
HETATM   54  O   UNK     0     -32.760  12.320   5.359  0.00  0.00    -0.650 OA
BRANCH  53  55
HETATM   55  O   UNK     0     -31.642  12.608   7.312  0.00  0.00    -0.776 OA
HETATM   56  H   UNK     0     -30.711  12.365   7.560  0.00  0.00     0.167 HD
ENDBRANCH  53  55
ENDBRANCH  52  53
ENDBRANCH  51  52
ENDBRANCH  18  51
TORSDOF 16
ENDMDL
MODEL 19
REMARK VINA RESULT:      -8.3     29.895     34.318
REMARK  16 active torsions:
REMARK  status: ('A' for Active; 'I' for Inactive)
REMARK    1  A    between atoms: C_6  and  C_7 
REMARK    2  A    between atoms: C_7  and  C_8 
REMARK    3  A    between atoms: C_8  and  C_9 
REMARK    4  A    between atoms: C_9  and  O_11 
REMARK    5  A    between atoms: C_16  and  C_17 
REMARK    6  A    between atoms: C_17  and  C_18 
REMARK    7  A    between atoms: C_18  and  C_19 
REMARK    8  A    between atoms: C_19  and  O_21 
REMARK    9  A    between atoms: C_28  and  C_29 
REMARK   10  A    between atoms: C_29  and  C_30 
REMARK   11  A    between atoms: C_30  and  C_31 
REMARK   12  A    between atoms: C_31  and  O_33 
REMARK   13  A    between atoms: C_42  and  C_43 
REMARK   14  A    between atoms: C_43  and  C_44 
REMARK   15  A    between atoms: C_44  and  C_45 
REMARK   16  A    between atoms: C_45  and  O_47 
ROOT
HETATM    1  C   UNK     0     -27.591  13.482   6.661  0.00  0.00     0.051 C 
HETATM    2  C   UNK     0     -26.225  13.819   7.224  0.00  0.00    -0.031 A 
HETATM    3  C   UNK     0     -25.453  14.955   7.040  0.00  0.00     0.021 A 
HETATM    4  N   UNK     0     -24.286  14.808   7.710  0.00  0.00    -0.361 N 
HETATM    5  C   UNK     0     -24.301  13.608   8.326  0.00  0.00     0.022 A 
HETATM    6  C   UNK     0     -25.499  12.961   8.040  0.00  0.00    -0.027 A 
HETATM    7  C   UNK     0     -23.301  13.005   9.262  0.00  0.00     0.115 C 
HETATM    8  C   UNK     0     -22.715  13.926  10.318  0.00  0.00     0.021 A 
HETATM    9  N   UNK     0     -23.316  14.926  10.982  0.00  0.00    -0.361 N 
HETATM   10  C   UNK     0     -22.390  15.532  11.755  0.00  0.00     0.022 A 
HETATM   11  C   UNK     0     -21.161  14.899  11.591  0.00  0.00    -0.027 A 
HETATM   12  C   UNK     0     -21.359  13.887  10.688  0.00  0.00    -0.031 A 
HETATM   13  C   UNK     0     -20.296  12.925  10.206  0.00  0.00     0.051 C 
HETATM   14  C   UNK     0     -22.613  16.759  12.635  0.00  0.00     0.115 C 
HETATM   15  C   UNK     0     -23.052  17.995  11.866  0.00  0.00     0.021 A 
HETATM   16  N   UNK     0     -24.142  18.135  11.089  0.00  0.00    -0.361 N 
HETATM   17  C   UNK     0     -24.133  19.350  10.535  0.00  0.00     0.022 A 
HETATM   18  C   UNK     0     -22.987  20.038  10.981  0.00  0.00    -0.027 A 
HETATM   19  C   UNK     0     -22.319  19.179  11.815  0.00  0.00    -0.031 A 
HETATM   20  C   UNK     0     -21.038  19.538  12.547  0.00  0.00     0.051 C 
HETATM   21  C   UNK     0     -25.084  19.970   9.537  0.00  0.00     0.115 C 
HETATM   22  C   UNK     0     -25.708  19.058   8.508  0.00  0.00     0.022 A 
HETATM   23  N   UNK     0     -25.135  18.052   7.834  0.00  0.00    -0.361 N 
HETATM   24  C   UNK     0     -26.092  17.414   7.131  0.00  0.00     0.021 A 
HETATM   25  C   UNK     0     -27.310  18.030   7.349  0.00  0.00    -0.031 A 
HETATM   26  C   UNK     0     -28.663  17.705   6.753  0.00  0.00     0.051 C 
HETATM   27  C   UNK     0     -27.089  19.085   8.227  0.00  0.00    -0.027 A 
HETATM   28  C   UNK     0     -25.946  16.159   6.288  0.00  0.00     0.115 C 
HETATM   29  H   UNK     0     -23.443  15.538   7.712  0.00  0.00     0.165 HD
HETATM   30  H   UNK     0     -24.405  15.175  10.946  0.00  0.00     0.165 HD
HETATM   31  H   UNK     0     -24.960  17.379  10.965  0.00  0.00     0.165 HD
HETATM   32  H   UNK     0     -24.041  17.809   7.815  0.00  0.00     0.165 HD
ENDROOT
BRANCH   6  33
HETATM   33  C   UNK     0     -25.998  11.607   8.476  0.00  0.00     0.051 C 
BRANCH  33  34
HETATM   34  C   UNK     0     -25.173  10.506   7.852  0.00  0.00     0.114 C 
BRANCH  34  35
HETATM   35  C   UNK     0     -24.539   9.739   8.962  0.00  0.00     0.139 C 
HETATM   36  O   UNK     0     -23.503   9.045   8.747  0.00  0.00    -0.650 OA
BRANCH  35  37
HETATM   37  O   UNK     0     -25.038   9.747  10.259  0.00  0.00    -0.776 OA
HETATM   38  H   UNK     0     -25.754   9.106  10.561  0.00  0.00     0.167 HD
ENDBRANCH  35  37
ENDBRANCH  34  35
ENDBRANCH  33  34
ENDBRANCH   6  33
BRANCH  27  39
HETATM   39  C   UNK     0     -28.160  20.030   8.644  0.00  0.00     0.051 C 
BRANCH  39  40
HETATM   40  C   UNK     0     -28.527  20.084  10.059  0.00  0.00     0.114 C 
BRANCH  40  41
HETATM   41  C   UNK     0     -28.051  19.110  11.016  0.00  0.00     0.139 C 
HETATM   42  O   UNK     0     -28.261  17.894  10.915  0.00  0.00    -0.650 OA
BRANCH  41  43
HETATM   43  O   UNK     0     -27.300  19.556  12.140  0.00  0.00    -0.776 OA
HETATM   44  H   UNK     0     -27.672  19.264  13.035  0.00  0.00     0.167 HD
ENDBRANCH  41  43
ENDBRANCH  40  41
ENDBRANCH  39  40
ENDBRANCH  27  39
BRANCH  11  45
HETATM   45  C   UNK     0     -19.844  15.215  12.249  0.00  0.00     0.051 C 
BRANCH  45  46
HETATM   46  C   UNK     0     -18.769  15.597  11.299  0.00  0.00     0.114 C 
BRANCH  46  47
HETATM   47  C   UNK     0     -18.494  17.048  11.502  0.00  0.00     0.139 C 
HETATM   48  O   UNK     0     -18.021  17.416  12.586  0.00  0.00    -0.650 OA
BRANCH  47  49
HETATM   49  O   UNK     0     -18.761  17.959  10.511  0.00  0.00    -0.776 OA
HETATM   50  H   UNK     0     -19.640  17.946   9.981  0.00  0.00     0.167 HD
ENDBRANCH  47  49
ENDBRANCH  46  47
ENDBRANCH  45  46
ENDBRANCH  11  45
BRANCH  18  51
HETATM   51  C   UNK     0     -22.562  21.445  10.647  0.00  0.00     0.051 C 
BRANCH  51  52
HETATM   52  C   UNK     0     -21.666  21.340   9.422  0.00  0.00     0.114 C 
BRANCH  52  53
HETATM   53  C   UNK     0     -21.964  22.393   8.432  0.00  0.00     0.139 C 
HETATM   54  O   UNK     0     -21.041  23.059   7.936  0.00  0.00    -0.650 OA
BRANCH  53  55
HETATM   55  O   UNK     0     -23.266  22.634   8.067  0.00  0.00    -0.776 OA
HETATM   56  H   UNK     0     -23.606  23.453   7.622  0.00  0.00     0.167 HD
ENDBRANCH  53  55
ENDBRANCH  52  53
ENDBRANCH  51  52
ENDBRANCH  18  51
TORSDOF 16
ENDMDL
MODEL 20
REMARK VINA RESULT:      -8.3     29.759     33.606
REMARK  16 active torsions:
REMARK  status: ('A' for Active; 'I' for Inactive)
REMARK    1  A    between atoms: C_6  and  C_7 
REMARK    2  A    between atoms: C_7  and  C_8 
REMARK    3  A    between atoms: C_8  and  C_9 
REMARK    4  A    between atoms: C_9  and  O_11 
REMARK    5  A    between atoms: C_16  and  C_17 
REMARK    6  A    between atoms: C_17  and  C_18 
REMARK    7  A    between atoms: C_18  and  C_19 
REMARK    8  A    between atoms: C_19  and  O_21 
REMARK    9  A    between atoms: C_28  and  C_29 
REMARK   10  A    between atoms: C_29  and  C_30 
REMARK   11  A    between atoms: C_30  and  C_31 
REMARK   12  A    between atoms: C_31  and  O_33 
REMARK   13  A    between atoms: C_42  and  C_43 
REMARK   14  A    between atoms: C_43  and  C_44 
REMARK   15  A    between atoms: C_44  and  C_45 
REMARK   16  A    between atoms: C_45  and  O_47 
ROOT
HETATM    1  C   UNK     0     -26.165  22.571   7.376  0.00  0.00     0.051 C 
HETATM    2  C   UNK     0     -25.844  21.174   7.868  0.00  0.00    -0.031 A 
HETATM    3  C   UNK     0     -26.686  20.086   8.035  0.00  0.00     0.021 A 
HETATM    4  N   UNK     0     -25.971  19.047   8.529  0.00  0.00    -0.361 N 
HETATM    5  C   UNK     0     -24.691  19.447   8.672  0.00  0.00     0.022 A 
HETATM    6  C   UNK     0     -24.577  20.774   8.270  0.00  0.00    -0.027 A 
HETATM    7  C   UNK     0     -23.488  18.659   9.089  0.00  0.00     0.115 C 
HETATM    8  C   UNK     0     -23.350  17.265   8.503  0.00  0.00     0.021 A 
HETATM    9  N   UNK     0     -23.690  16.835   7.278  0.00  0.00    -0.361 N 
HETATM   10  C   UNK     0     -23.476  15.504   7.226  0.00  0.00     0.022 A 
HETATM   11  C   UNK     0     -22.976  15.065   8.449  0.00  0.00    -0.027 A 
HETATM   12  C   UNK     0     -22.894  16.170   9.258  0.00  0.00    -0.031 A 
HETATM   13  C   UNK     0     -22.396  16.172  10.686  0.00  0.00     0.051 C 
HETATM   14  C   UNK     0     -23.783  14.586   6.046  0.00  0.00     0.115 C 
HETATM   15  C   UNK     0     -25.252  14.554   5.657  0.00  0.00     0.021 A 
HETATM   16  N   UNK     0     -26.025  15.589   5.281  0.00  0.00    -0.361 N 
HETATM   17  C   UNK     0     -27.274  15.158   5.092  0.00  0.00     0.022 A 
HETATM   18  C   UNK     0     -27.315  13.773   5.348  0.00  0.00    -0.027 A 
HETATM   19  C   UNK     0     -26.042  13.407   5.700  0.00  0.00    -0.031 A 
HETATM   20  C   UNK     0     -25.633  11.981   6.024  0.00  0.00     0.051 C 
HETATM   21  C   UNK     0     -28.526  15.929   4.737  0.00  0.00     0.115 C 
HETATM   22  C   UNK     0     -28.656  17.334   5.277  0.00  0.00     0.022 A 
HETATM   23  N   UNK     0     -28.322  17.791   6.491  0.00  0.00    -0.361 N 
HETATM   24  C   UNK     0     -28.470  19.131   6.495  0.00  0.00     0.021 A 
HETATM   25  C   UNK     0     -28.920  19.546   5.256  0.00  0.00    -0.031 A 
HETATM   26  C   UNK     0     -29.269  20.943   4.788  0.00  0.00     0.051 C 
HETATM   27  C   UNK     0     -29.047  18.414   4.460  0.00  0.00    -0.027 A 
HETATM   28  C   UNK     0     -28.128  20.101   7.613  0.00  0.00     0.115 C 
HETATM   29  H   UNK     0     -26.384  18.050   8.810  0.00  0.00     0.165 HD
HETATM   30  H   UNK     0     -24.034  17.478   6.431  0.00  0.00     0.165 HD
HETATM   31  H   UNK     0     -25.673  16.638   5.099  0.00  0.00     0.165 HD
HETATM   32  H   UNK     0     -28.020  17.166   7.372  0.00  0.00     0.165 HD
ENDROOT
BRANCH   6  33
HETATM   33  C   UNK     0     -23.371  21.679   8.243  0.00  0.00     0.051 C 
BRANCH  33  34
HETATM   34  C   UNK     0     -23.147  22.312   9.595  0.00  0.00     0.114 C 
BRANCH  34  35
HETATM   35  C   UNK     0     -21.715  22.101   9.955  0.00  0.00     0.139 C 
HETATM   36  O   UNK     0     -21.141  22.882  10.769  0.00  0.00    -0.650 OA
BRANCH  35  37
HETATM   37  O   UNK     0     -20.956  21.062   9.431  0.00  0.00    -0.776 OA
HETATM   38  H   UNK     0     -20.816  20.950   8.440  0.00  0.00     0.167 HD
ENDBRANCH  35  37
ENDBRANCH  34  35
ENDBRANCH  33  34
ENDBRANCH   6  33
BRANCH  27  39
HETATM   39  C   UNK     0     -29.577  18.455   3.070  0.00  0.00     0.051 C 
BRANCH  39  40
HETATM   40  C   UNK     0     -28.681  18.091   1.973  0.00  0.00     0.114 C 
BRANCH  40  41
HETATM   41  C   UNK     0     -27.447  18.800   1.719  0.00  0.00     0.139 C 
HETATM   42  O   UNK     0     -27.374  20.033   1.622  0.00  0.00    -0.650 OA
BRANCH  41  43
HETATM   43  O   UNK     0     -26.241  18.058   1.570  0.00  0.00    -0.776 OA
HETATM   44  H   UNK     0     -25.695  17.970   2.419  0.00  0.00     0.167 HD
ENDBRANCH  41  43
ENDBRANCH  40  41
ENDBRANCH  39  40
ENDBRANCH  27  39
BRANCH  11  45
HETATM   45  C   UNK     0     -22.582  13.672   8.860  0.00  0.00     0.051 C 
BRANCH  45  46
HETATM   46  C   UNK     0     -21.121  13.412   8.799  0.00  0.00     0.114 C 
BRANCH  46  47
HETATM   47  C   UNK     0     -20.702  12.932  10.148  0.00  0.00     0.139 C 
HETATM   48  O   UNK     0     -21.566  12.805  11.026  0.00  0.00    -0.650 OA
BRANCH  47  49
HETATM   49  O   UNK     0     -19.387  12.640  10.412  0.00  0.00    -0.776 OA
HETATM   50  H   UNK     0     -18.634  13.317  10.245  0.00  0.00     0.167 HD
ENDBRANCH  47  49
ENDBRANCH  46  47
ENDBRANCH  45  46
ENDBRANCH  11  45
BRANCH  18  51
HETATM   51  C   UNK     0     -28.497  12.846   5.242  0.00  0.00     0.051 C 
BRANCH  51  52
HETATM   52  C   UNK     0     -29.027  12.667   6.658  0.00  0.00     0.114 C 
BRANCH  52  53
HETATM   53  C   UNK     0     -29.374  11.261   6.941  0.00  0.00     0.139 C 
HETATM   54  O   UNK     0     -28.675  10.343   6.483  0.00  0.00    -0.650 OA
BRANCH  53  55
HETATM   55  O   UNK     0     -30.476  10.975   7.710  0.00  0.00    -0.776 OA
HETATM   56  H   UNK     0     -30.583  11.179   8.676  0.00  0.00     0.167 HD
ENDBRANCH  53  55
ENDBRANCH  52  53
ENDBRANCH  51  52
ENDBRANCH  18  51
TORSDOF 16
ENDMDL
