MODEL 1
REMARK VINA RESULT:     -10.1      0.000      0.000
REMARK  28 active torsions:
REMARK  status: ('A' for Active; 'I' for Inactive)
REMARK    1  A    between atoms: C_2  and  O_3 
REMARK    2  A    between atoms: C_2  and  C_4 
REMARK    3  A    between atoms: C_4  and  C_5 
REMARK    4  A    between atoms: C_5  and  C_6 
REMARK    5  A    between atoms: C_7  and  C_8 
REMARK    6  A    between atoms: C_8  and  C_9 
REMARK    7  A    between atoms: C_9  and  O_11 
REMARK    8  A    between atoms: C_28  and  C_29 
REMARK    9  A    between atoms: C_29  and  C_30 
REMARK   10  A    between atoms: C_30  and  O_32 
REMARK   11  A    between atoms: C_33  and  C_34 
REMARK   12  A    between atoms: C_34  and  C_35 
REMARK   13  A    between atoms: C_35  and  C_36 
REMARK   14  A    between atoms: C_36  and  O_38 
REMARK   15  A    between atoms: C_39  and  C_40 
REMARK   16  A    between atoms: C_40  and  C_41 
REMARK   17  A    between atoms: C_41  and  C_42 
REMARK   18  A    between atoms: C_42  and  O_44 
REMARK   19  A    between atoms: C_45  and  C_46 
REMARK   20  A    between atoms: C_46  and  C_47 
REMARK   21  A    between atoms: C_47  and  O_49 
REMARK   22  A    between atoms: C_50  and  C_51 
REMARK   23  A    between atoms: C_51  and  C_52 
REMARK   24  A    between atoms: C_52  and  O_54 
REMARK   25  A    between atoms: C_55  and  C_56 
REMARK   26  A    between atoms: C_56  and  C_57 
REMARK   27  A    between atoms: C_57  and  C_58 
REMARK   28  A    between atoms: C_58  and  O_60 
ROOT
ATOM      1  O   UNK d   0     -27.362  -5.224   1.731  0.00  0.00    -0.650 OA
ATOM      2  C   UNK d   0     -26.625  -4.213   1.709  0.00  0.00     0.139 C 
ENDROOT
BRANCH   2   3
ATOM      3  O   UNK d   0     -26.685  -3.359   0.634  0.00  0.00    -0.776 OA
ATOM      4  H   UNK d   0     -26.269  -3.612  -0.265  0.00  0.00     0.167 HD
ENDBRANCH   2   3
BRANCH   2   5
ATOM      5  C   UNK d   0     -25.692  -3.943   2.839  0.00  0.00     0.115 C 
BRANCH   5   6
ATOM      6  C   UNK d   0     -25.082  -5.229   3.326  0.00  0.00     0.052 C 
BRANCH   6   7
ATOM      7  C   UNK d   0     -23.572  -5.191   3.331  0.00  0.00    -0.020 A 
ATOM      8  C   UNK d   0     -22.780  -5.099   4.368  0.00  0.00    -0.011 A 
ATOM      9  C   UNK d   0     -21.410  -5.089   3.882  0.00  0.00     0.067 A 
ATOM     10  C   UNK d   0     -20.132  -5.033   4.459  0.00  0.00     0.062 C 
ATOM     11  N   UNK d   0     -21.462  -5.172   2.536  0.00  0.00    -0.248 NA
ATOM     12  C   UNK d   0     -18.910  -5.316   3.839  0.00  0.00     0.041 A 
ATOM     13  N   UNK d   0     -18.436  -4.986   2.622  0.00  0.00    -0.355 N 
ATOM     14  C   UNK d   0     -17.976  -6.124   4.512  0.00  0.00    -0.022 A 
ATOM     15  C   UNK d   0     -17.229  -5.571   2.503  0.00  0.00     0.042 A 
ATOM     16  H   UNK d   0     -18.936  -4.337   1.870  0.00  0.00     0.166 HD
ATOM     17  C   UNK d   0     -16.305  -5.552   1.439  0.00  0.00     0.062 C 
ATOM     18  C   UNK d   0     -16.906  -6.294   3.668  0.00  0.00    -0.013 A 
ATOM     19  C   UNK d   0     -16.534  -5.709   0.096  0.00  0.00     0.067 A 
ATOM     20  N   UNK d   0     -17.807  -5.683  -0.308  0.00  0.00    -0.248 NA
ATOM     21  C   UNK d   0     -15.715  -5.924  -1.085  0.00  0.00    -0.011 A 
ATOM     22  C   UNK d   0     -17.879  -5.867  -1.667  0.00  0.00     0.066 A 
ATOM     23  C   UNK d   0     -19.147  -5.825  -2.228  0.00  0.00     0.062 C 
ATOM     24  C   UNK d   0     -16.508  -6.020  -2.113  0.00  0.00    -0.020 A 
ATOM     25  C   UNK d   0     -20.361  -5.527  -1.590  0.00  0.00     0.041 A 
ATOM     26  N   UNK d   0     -20.838  -5.866  -0.387  0.00  0.00    -0.355 N 
ATOM     27  C   UNK d   0     -21.296  -4.712  -2.265  0.00  0.00    -0.022 A 
ATOM     28  C   UNK d   0     -22.045  -5.292  -0.269  0.00  0.00     0.042 A 
ATOM     29  H   UNK d   0     -20.339  -6.528   0.364  0.00  0.00     0.166 HD
ATOM     30  C   UNK d   0     -22.978  -5.310   0.780  0.00  0.00     0.062 C 
ATOM     31  C   UNK d   0     -22.364  -4.557  -1.436  0.00  0.00    -0.013 A 
ATOM     32  C   UNK d   0     -22.734  -5.236   2.142  0.00  0.00     0.066 A 
BRANCH   8  33
ATOM     33  C   UNK d   0     -23.182  -5.015   5.784  0.00  0.00     0.151 C 
BRANCH  33  34
ATOM     34  C   UNK d   0     -23.287  -3.625   6.266  0.00  0.00     0.143 C 
ATOM     35  O   UNK d   0     -24.006  -2.802   5.682  0.00  0.00    -0.650 OA
BRANCH  34  36
ATOM     36  O   UNK d   0     -22.575  -3.240   7.378  0.00  0.00    -0.776 OA
ATOM     37  H   UNK d   0     -22.659  -3.749   8.269  0.00  0.00     0.167 HD
ENDBRANCH  34  36
ENDBRANCH  33  34
ENDBRANCH   8  33
BRANCH  31  38
ATOM     38  C   UNK d   0     -23.608  -3.751  -1.726  0.00  0.00     0.151 C 
BRANCH  38  39
ATOM     39  C   UNK d   0     -23.560  -2.420  -1.160  0.00  0.00     0.143 C 
ATOM     40  O   UNK d   0     -24.280  -2.076  -0.206  0.00  0.00    -0.650 OA
BRANCH  39  41
ATOM     41  O   UNK d   0     -22.678  -1.479  -1.692  0.00  0.00    -0.776 OA
ATOM     42  H   UNK d   0     -22.472  -0.660  -1.112  0.00  0.00     0.167 HD
ENDBRANCH  39  41
ENDBRANCH  38  39
ENDBRANCH  31  38
BRANCH  27  43
ATOM     43  C   UNK d   0     -21.212  -4.092  -3.637  0.00  0.00     0.052 C 
BRANCH  43  44
ATOM     44  C   UNK d   0     -21.705  -4.992  -4.723  0.00  0.00     0.115 C 
BRANCH  44  45
ATOM     45  C   UNK d   0     -21.001  -4.582  -5.966  0.00  0.00     0.139 C 
ATOM     46  O   UNK d   0     -19.747  -4.653  -5.988  0.00  0.00    -0.650 OA
BRANCH  45  47
ATOM     47  O   UNK d   0     -21.665  -4.135  -7.088  0.00  0.00    -0.776 OA
ATOM     48  H   UNK d   0     -22.507  -3.538  -7.041  0.00  0.00     0.167 HD
ENDBRANCH  45  47
ENDBRANCH  44  45
ENDBRANCH  43  44
ENDBRANCH  27  43
BRANCH  24  49
ATOM     49  C   UNK d   0     -16.095  -6.203  -3.515  0.00  0.00     0.052 C 
BRANCH  49  50
ATOM     50  C   UNK d   0     -15.592  -4.902  -4.087  0.00  0.00     0.115 C 
BRANCH  50  51
ATOM     51  C   UNK d   0     -14.373  -4.953  -4.883  0.00  0.00     0.139 C 
ATOM     52  O   UNK d   0     -13.234  -5.051  -4.370  0.00  0.00    -0.650 OA
BRANCH  51  53
ATOM     53  O   UNK d   0     -14.454  -4.891  -6.266  0.00  0.00    -0.776 OA
ATOM     54  H   UNK d   0     -15.054  -5.545  -6.738  0.00  0.00     0.167 HD
ENDBRANCH  51  53
ENDBRANCH  50  51
ENDBRANCH  49  50
ENDBRANCH  24  49
BRANCH  21  55
ATOM     55  C   UNK d   0     -14.224  -6.007  -1.064  0.00  0.00     0.151 C 
BRANCH  55  56
ATOM     56  C   UNK d   0     -13.725  -6.643   0.165  0.00  0.00     0.143 C 
ATOM     57  O   UNK d   0     -13.916  -7.847   0.427  0.00  0.00    -0.650 OA
BRANCH  56  58
ATOM     58  O   UNK d   0     -13.009  -5.851   1.061  0.00  0.00    -0.776 OA
ATOM     59  H   UNK d   0     -13.589  -5.226   1.650  0.00  0.00     0.167 HD
ENDBRANCH  56  58
ENDBRANCH  55  56
ENDBRANCH  21  55
BRANCH  18  60
ATOM     60  C   UNK d   0     -15.674  -7.103   3.987  0.00  0.00     0.151 C 
BRANCH  60  61
ATOM     61  C   UNK d   0     -14.754  -6.185   4.675  0.00  0.00     0.143 C 
ATOM     62  O   UNK d   0     -14.637  -6.023   5.890  0.00  0.00    -0.650 OA
BRANCH  61  63
ATOM     63  O   UNK d   0     -13.924  -5.415   3.825  0.00  0.00    -0.776 OA
ATOM     64  H   UNK d   0     -13.334  -5.853   3.140  0.00  0.00     0.167 HD
ENDBRANCH  61  63
ENDBRANCH  60  61
ENDBRANCH  18  60
BRANCH  14  65
ATOM     65  C   UNK d   0     -17.974  -6.661   5.915  0.00  0.00     0.052 C 
BRANCH  65  66
ATOM     66  C   UNK d   0     -19.341  -6.935   6.434  0.00  0.00     0.115 C 
BRANCH  66  67
ATOM     67  C   UNK d   0     -19.707  -6.485   7.748  0.00  0.00     0.139 C 
ATOM     68  O   UNK d   0     -20.877  -5.980   7.921  0.00  0.00    -0.650 OA
BRANCH  67  69
ATOM     69  O   UNK d   0     -18.935  -6.524   8.909  0.00  0.00    -0.776 OA
ATOM     70  H   UNK d   0     -18.072  -7.084   8.854  0.00  0.00     0.167 HD
ENDBRANCH  67  69
ENDBRANCH  66  67
ENDBRANCH  65  66
ENDBRANCH  14  65
ENDBRANCH   6   7
ENDBRANCH   5   6
ENDBRANCH   2   5
TORSDOF 28
ENDMDL
MODEL 2
REMARK VINA RESULT:      -9.9      1.932      7.900
REMARK  28 active torsions:
REMARK  status: ('A' for Active; 'I' for Inactive)
REMARK    1  A    between atoms: C_2  and  O_3 
REMARK    2  A    between atoms: C_2  and  C_4 
REMARK    3  A    between atoms: C_4  and  C_5 
REMARK    4  A    between atoms: C_5  and  C_6 
REMARK    5  A    between atoms: C_7  and  C_8 
REMARK    6  A    between atoms: C_8  and  C_9 
REMARK    7  A    between atoms: C_9  and  O_11 
REMARK    8  A    between atoms: C_28  and  C_29 
REMARK    9  A    between atoms: C_29  and  C_30 
REMARK   10  A    between atoms: C_30  and  O_32 
REMARK   11  A    between atoms: C_33  and  C_34 
REMARK   12  A    between atoms: C_34  and  C_35 
REMARK   13  A    between atoms: C_35  and  C_36 
REMARK   14  A    between atoms: C_36  and  O_38 
REMARK   15  A    between atoms: C_39  and  C_40 
REMARK   16  A    between atoms: C_40  and  C_41 
REMARK   17  A    between atoms: C_41  and  C_42 
REMARK   18  A    between atoms: C_42  and  O_44 
REMARK   19  A    between atoms: C_45  and  C_46 
REMARK   20  A    between atoms: C_46  and  C_47 
REMARK   21  A    between atoms: C_47  and  O_49 
REMARK   22  A    between atoms: C_50  and  C_51 
REMARK   23  A    between atoms: C_51  and  C_52 
REMARK   24  A    between atoms: C_52  and  O_54 
REMARK   25  A    between atoms: C_55  and  C_56 
REMARK   26  A    between atoms: C_56  and  C_57 
REMARK   27  A    between atoms: C_57  and  C_58 
REMARK   28  A    between atoms: C_58  and  O_60 
ROOT
ATOM      1  O   UNK d   0     -24.789  -2.358   5.384  0.00  0.00    -0.650 OA
ATOM      2  C   UNK d   0     -25.854  -2.163   4.758  0.00  0.00     0.139 C 
ENDROOT
BRANCH   2   3
ATOM      3  O   UNK d   0     -26.949  -1.673   5.428  0.00  0.00    -0.776 OA
ATOM      4  H   UNK d   0     -26.842  -1.118   6.280  0.00  0.00     0.167 HD
ENDBRANCH   2   3
BRANCH   2   5
ATOM      5  C   UNK d   0     -25.930  -2.461   3.299  0.00  0.00     0.115 C 
BRANCH   5   6
ATOM      6  C   UNK d   0     -26.005  -3.947   3.078  0.00  0.00     0.052 C 
BRANCH   6   7
ATOM      7  C   UNK d   0     -24.854  -4.471   2.253  0.00  0.00    -0.020 A 
ATOM      8  C   UNK d   0     -24.808  -4.623   0.954  0.00  0.00    -0.011 A 
ATOM      9  C   UNK d   0     -23.502  -5.165   0.616  0.00  0.00     0.067 A 
ATOM     10  C   UNK d   0     -22.830  -5.525  -0.563  0.00  0.00     0.062 C 
ATOM     11  N   UNK d   0     -22.820  -5.316   1.770  0.00  0.00    -0.248 NA
ATOM     12  C   UNK d   0     -21.461  -5.771  -0.716  0.00  0.00     0.041 A 
ATOM     13  N   UNK d   0     -20.591  -6.451   0.055  0.00  0.00    -0.355 N 
ATOM     14  C   UNK d   0     -20.785  -5.200  -1.809  0.00  0.00    -0.022 A 
ATOM     15  C   UNK d   0     -19.379  -6.320  -0.518  0.00  0.00     0.042 A 
ATOM     16  H   UNK d   0     -20.832  -7.029   0.974  0.00  0.00     0.166 HD
ATOM     17  C   UNK d   0     -18.125  -6.831  -0.128  0.00  0.00     0.062 C 
ATOM     18  C   UNK d   0     -19.461  -5.542  -1.689  0.00  0.00    -0.013 A 
ATOM     19  C   UNK d   0     -17.553  -6.855   1.118  0.00  0.00     0.067 A 
ATOM     20  N   UNK d   0     -18.340  -6.541   2.151  0.00  0.00    -0.248 NA
ATOM     21  C   UNK d   0     -16.233  -7.136   1.657  0.00  0.00    -0.011 A 
ATOM     22  C   UNK d   0     -17.629  -6.594   3.325  0.00  0.00     0.066 A 
ATOM     23  C   UNK d   0     -18.338  -6.325   4.487  0.00  0.00     0.062 C 
ATOM     24  C   UNK d   0     -16.283  -6.977   2.948  0.00  0.00    -0.020 A 
ATOM     25  C   UNK d   0     -19.715  -6.093   4.620  0.00  0.00     0.041 A 
ATOM     26  N   UNK d   0     -20.577  -5.404   3.863  0.00  0.00    -0.355 N 
ATOM     27  C   UNK d   0     -20.394  -6.670   5.716  0.00  0.00    -0.022 A 
ATOM     28  C   UNK d   0     -21.785  -5.526   4.436  0.00  0.00     0.042 A 
ATOM     29  H   UNK d   0     -20.332  -4.815   2.945  0.00  0.00     0.166 HD
ATOM     30  C   UNK d   0     -23.039  -5.016   4.065  0.00  0.00     0.062 C 
ATOM     31  C   UNK d   0     -21.704  -6.317   5.607  0.00  0.00    -0.013 A 
ATOM     32  C   UNK d   0     -23.577  -4.915   2.792  0.00  0.00     0.066 A 
BRANCH   8  33
ATOM     33  C   UNK d   0     -25.878  -4.314  -0.012  0.00  0.00     0.151 C 
BRANCH  33  34
ATOM     34  C   UNK d   0     -26.333  -5.500  -0.759  0.00  0.00     0.143 C 
ATOM     35  O   UNK d   0     -26.114  -5.610  -1.974  0.00  0.00    -0.650 OA
BRANCH  34  36
ATOM     36  O   UNK d   0     -27.010  -6.498  -0.096  0.00  0.00    -0.776 OA
ATOM     37  H   UNK d   0     -26.602  -7.435   0.018  0.00  0.00     0.167 HD
ENDBRANCH  34  36
ENDBRANCH  33  34
ENDBRANCH   8  33
BRANCH  31  38
ATOM     38  C   UNK d   0     -22.816  -6.716   6.549  0.00  0.00     0.151 C 
BRANCH  38  39
ATOM     39  C   UNK d   0     -22.866  -5.894   7.739  0.00  0.00     0.143 C 
ATOM     40  O   UNK d   0     -23.252  -6.334   8.836  0.00  0.00    -0.650 OA
BRANCH  39  41
ATOM     41  O   UNK d   0     -22.469  -4.559   7.668  0.00  0.00    -0.776 OA
ATOM     42  H   UNK d   0     -21.730  -4.332   6.996  0.00  0.00     0.167 HD
ENDBRANCH  39  41
ENDBRANCH  38  39
ENDBRANCH  31  38
BRANCH  27  43
ATOM     43  C   UNK d   0     -19.853  -7.523   6.837  0.00  0.00     0.052 C 
BRANCH  43  44
ATOM     44  C   UNK d   0     -19.279  -6.725   7.962  0.00  0.00     0.115 C 
BRANCH  44  45
ATOM     45  C   UNK d   0     -17.863  -7.152   8.107  0.00  0.00     0.139 C 
ATOM     46  O   UNK d   0     -17.574  -8.343   7.833  0.00  0.00    -0.650 OA
BRANCH  45  47
ATOM     47  O   UNK d   0     -16.864  -6.299   8.520  0.00  0.00    -0.776 OA
ATOM     48  H   UNK d   0     -16.158  -5.907   7.875  0.00  0.00     0.167 HD
ENDBRANCH  45  47
ENDBRANCH  44  45
ENDBRANCH  43  44
ENDBRANCH  27  43
BRANCH  24  49
ATOM     49  C   UNK d   0     -15.175  -7.196   3.894  0.00  0.00     0.052 C 
BRANCH  49  50
ATOM     50  C   UNK d   0     -14.762  -5.893   4.528  0.00  0.00     0.115 C 
BRANCH  50  51
ATOM     51  C   UNK d   0     -13.995  -4.966   3.706  0.00  0.00     0.139 C 
ATOM     52  O   UNK d   0     -12.748  -5.033   3.594  0.00  0.00    -0.650 OA
BRANCH  51  53
ATOM     53  O   UNK d   0     -14.651  -3.961   3.012  0.00  0.00    -0.776 OA
ATOM     54  H   UNK d   0     -14.132  -3.135   2.769  0.00  0.00     0.167 HD
ENDBRANCH  51  53
ENDBRANCH  50  51
ENDBRANCH  49  50
ENDBRANCH  24  49
BRANCH  21  55
ATOM     55  C   UNK d   0     -15.060  -7.537   0.825  0.00  0.00     0.151 C 
BRANCH  55  56
ATOM     56  C   UNK d   0     -14.489  -6.398   0.090  0.00  0.00     0.143 C 
ATOM     57  O   UNK d   0     -14.900  -6.045  -1.033  0.00  0.00    -0.650 OA
BRANCH  56  58
ATOM     58  O   UNK d   0     -13.445  -5.695   0.690  0.00  0.00    -0.776 OA
ATOM     59  H   UNK d   0     -13.684  -4.733   0.991  0.00  0.00     0.167 HD
ENDBRANCH  56  58
ENDBRANCH  55  56
ENDBRANCH  21  55
BRANCH  18  60
ATOM     60  C   UNK d   0     -18.371  -5.131  -2.647  0.00  0.00     0.151 C 
BRANCH  60  61
ATOM     61  C   UNK d   0     -17.896  -6.374  -3.275  0.00  0.00     0.143 C 
ATOM     62  O   UNK d   0     -18.564  -7.375  -3.537  0.00  0.00    -0.650 OA
BRANCH  61  63
ATOM     63  O   UNK d   0     -16.520  -6.394  -3.605  0.00  0.00    -0.776 OA
ATOM     64  H   UNK d   0     -16.205  -6.174  -4.533  0.00  0.00     0.167 HD
ENDBRANCH  61  63
ENDBRANCH  60  61
ENDBRANCH  18  60
BRANCH  14  65
ATOM     65  C   UNK d   0     -21.306  -4.447  -3.000  0.00  0.00     0.052 C 
BRANCH  65  66
ATOM     66  C   UNK d   0     -21.393  -5.285  -4.226  0.00  0.00     0.115 C 
BRANCH  66  67
ATOM     67  C   UNK d   0     -21.017  -4.730  -5.496  0.00  0.00     0.139 C 
ATOM     68  O   UNK d   0     -19.766  -4.651  -5.784  0.00  0.00    -0.650 OA
BRANCH  67  69
ATOM     69  O   UNK d   0     -21.856  -4.245  -6.498  0.00  0.00    -0.776 OA
ATOM     70  H   UNK d   0     -21.859  -3.223  -6.624  0.00  0.00     0.167 HD
ENDBRANCH  67  69
ENDBRANCH  66  67
ENDBRANCH  65  66
ENDBRANCH  14  65
ENDBRANCH   6   7
ENDBRANCH   5   6
ENDBRANCH   2   5
TORSDOF 28
ENDMDL
MODEL 3
REMARK VINA RESULT:      -9.4      3.661      9.886
REMARK  28 active torsions:
REMARK  status: ('A' for Active; 'I' for Inactive)
REMARK    1  A    between atoms: C_2  and  O_3 
REMARK    2  A    between atoms: C_2  and  C_4 
REMARK    3  A    between atoms: C_4  and  C_5 
REMARK    4  A    between atoms: C_5  and  C_6 
REMARK    5  A    between atoms: C_7  and  C_8 
REMARK    6  A    between atoms: C_8  and  C_9 
REMARK    7  A    between atoms: C_9  and  O_11 
REMARK    8  A    between atoms: C_28  and  C_29 
REMARK    9  A    between atoms: C_29  and  C_30 
REMARK   10  A    between atoms: C_30  and  O_32 
REMARK   11  A    between atoms: C_33  and  C_34 
REMARK   12  A    between atoms: C_34  and  C_35 
REMARK   13  A    between atoms: C_35  and  C_36 
REMARK   14  A    between atoms: C_36  and  O_38 
REMARK   15  A    between atoms: C_39  and  C_40 
REMARK   16  A    between atoms: C_40  and  C_41 
REMARK   17  A    between atoms: C_41  and  C_42 
REMARK   18  A    between atoms: C_42  and  O_44 
REMARK   19  A    between atoms: C_45  and  C_46 
REMARK   20  A    between atoms: C_46  and  C_47 
REMARK   21  A    between atoms: C_47  and  O_49 
REMARK   22  A    between atoms: C_50  and  C_51 
REMARK   23  A    between atoms: C_51  and  C_52 
REMARK   24  A    between atoms: C_52  and  O_54 
REMARK   25  A    between atoms: C_55  and  C_56 
REMARK   26  A    between atoms: C_56  and  C_57 
REMARK   27  A    between atoms: C_57  and  C_58 
REMARK   28  A    between atoms: C_58  and  O_60 
ROOT
ATOM      1  O   UNK d   0     -27.900  -5.021   1.793  0.00  0.00    -0.650 OA
ATOM      2  C   UNK d   0     -26.767  -5.403   1.422  0.00  0.00     0.139 C 
ENDROOT
BRANCH   2   3
ATOM      3  O   UNK d   0     -26.570  -6.729   1.119  0.00  0.00    -0.776 OA
ATOM      4  H   UNK d   0     -25.743  -7.228   1.452  0.00  0.00     0.167 HD
ENDBRANCH   2   3
BRANCH   2   5
ATOM      5  C   UNK d   0     -25.647  -4.426   1.312  0.00  0.00     0.115 C 
BRANCH   5   6
ATOM      6  C   UNK d   0     -25.212  -3.981   2.682  0.00  0.00     0.052 C 
BRANCH   6   7
ATOM      7  C   UNK d   0     -23.905  -4.605   3.108  0.00  0.00    -0.020 A 
ATOM      8  C   UNK d   0     -22.901  -4.955   2.346  0.00  0.00    -0.011 A 
ATOM      9  C   UNK d   0     -21.869  -5.518   3.199  0.00  0.00     0.067 A 
ATOM     10  C   UNK d   0     -20.580  -6.044   3.018  0.00  0.00     0.062 C 
ATOM     11  N   UNK d   0     -22.331  -5.477   4.467  0.00  0.00    -0.248 NA
ATOM     12  C   UNK d   0     -19.617  -6.286   4.004  0.00  0.00     0.041 A 
ATOM     13  N   UNK d   0     -19.723  -6.824   5.234  0.00  0.00    -0.355 N 
ATOM     14  C   UNK d   0     -18.290  -5.879   3.773  0.00  0.00    -0.022 A 
ATOM     15  C   UNK d   0     -18.500  -6.761   5.793  0.00  0.00     0.042 A 
ATOM     16  H   UNK d   0     -20.640  -7.257   5.690  0.00  0.00     0.166 HD
ATOM     17  C   UNK d   0     -18.052  -7.183   7.060  0.00  0.00     0.062 C 
ATOM     18  C   UNK d   0     -17.575  -6.174   4.907  0.00  0.00    -0.013 A 
ATOM     19  C   UNK d   0     -18.641  -7.004   8.286  0.00  0.00     0.067 A 
ATOM     20  N   UNK d   0     -19.897  -6.549   8.293  0.00  0.00    -0.248 NA
ATOM     21  C   UNK d   0     -18.240  -7.174   9.673  0.00  0.00    -0.011 A 
ATOM     22  C   UNK d   0     -20.345  -6.407   9.584  0.00  0.00     0.066 A 
ATOM     23  C   UNK d   0     -21.654  -5.975   9.738  0.00  0.00     0.062 C 
ATOM     24  C   UNK d   0     -19.240  -6.819  10.427  0.00  0.00    -0.020 A 
ATOM     25  C   UNK d   0     -22.609  -5.750   8.734  0.00  0.00     0.041 A 
ATOM     26  N   UNK d   0     -22.507  -5.202   7.518  0.00  0.00    -0.355 N 
ATOM     27  C   UNK d   0     -23.940  -6.163   8.965  0.00  0.00    -0.022 A 
ATOM     28  C   UNK d   0     -23.728  -5.255   6.962  0.00  0.00     0.042 A 
ATOM     29  H   UNK d   0     -21.587  -4.757   7.065  0.00  0.00     0.166 HD
ATOM     30  C   UNK d   0     -24.189  -4.831   5.706  0.00  0.00     0.062 C 
ATOM     31  C   UNK d   0     -24.654  -5.855   7.848  0.00  0.00    -0.013 A 
ATOM     32  C   UNK d   0     -23.551  -4.938   4.480  0.00  0.00     0.066 A 
BRANCH   8  33
ATOM     33  C   UNK d   0     -22.814  -4.817   0.880  0.00  0.00     0.151 C 
BRANCH  33  34
ATOM     34  C   UNK d   0     -22.738  -6.117   0.189  0.00  0.00     0.143 C 
ATOM     35  O   UNK d   0     -23.729  -6.857   0.114  0.00  0.00    -0.650 OA
BRANCH  34  36
ATOM     36  O   UNK d   0     -21.549  -6.512  -0.379  0.00  0.00    -0.776 OA
ATOM     37  H   UNK d   0     -20.715  -6.691   0.197  0.00  0.00     0.167 HD
ENDBRANCH  34  36
ENDBRANCH  33  34
ENDBRANCH   8  33
BRANCH  31  38
ATOM     38  C   UNK d   0     -26.124  -6.124   7.627  0.00  0.00     0.151 C 
BRANCH  38  39
ATOM     39  C   UNK d   0     -26.957  -4.982   7.940  0.00  0.00     0.143 C 
ATOM     40  O   UNK d   0     -26.697  -4.205   8.875  0.00  0.00    -0.650 OA
BRANCH  39  41
ATOM     41  O   UNK d   0     -28.093  -4.731   7.171  0.00  0.00    -0.776 OA
ATOM     42  H   UNK d   0     -27.949  -4.257   6.274  0.00  0.00     0.167 HD
ENDBRANCH  39  41
ENDBRANCH  38  39
ENDBRANCH  31  38
BRANCH  27  43
ATOM     43  C   UNK d   0     -24.542  -6.823  10.180  0.00  0.00     0.052 C 
BRANCH  43  44
ATOM     44  C   UNK d   0     -24.189  -8.270  10.303  0.00  0.00     0.115 C 
BRANCH  44  45
ATOM     45  C   UNK d   0     -25.422  -9.036   9.986  0.00  0.00     0.139 C 
ATOM     46  O   UNK d   0     -26.257  -9.222  10.906  0.00  0.00    -0.650 OA
BRANCH  45  47
ATOM     47  O   UNK d   0     -25.687  -9.541   8.731  0.00  0.00    -0.776 OA
ATOM     48  H   UNK d   0     -25.527  -9.001   7.865  0.00  0.00     0.167 HD
ENDBRANCH  45  47
ENDBRANCH  44  45
ENDBRANCH  43  44
ENDBRANCH  27  43
BRANCH  24  49
ATOM     49  C   UNK d   0     -19.279  -6.870  11.899  0.00  0.00     0.052 C 
BRANCH  49  50
ATOM     50  C   UNK d   0     -19.876  -5.602  12.452  0.00  0.00     0.115 C 
BRANCH  50  51
ATOM     51  C   UNK d   0     -20.428  -5.659  13.798  0.00  0.00     0.139 C 
ATOM     52  O   UNK d   0     -19.737  -5.959  14.800  0.00  0.00    -0.650 OA
BRANCH  51  53
ATOM     53  O   UNK d   0     -21.770  -5.377  14.003  0.00  0.00    -0.776 OA
ATOM     54  H   UNK d   0     -22.069  -4.419  13.945  0.00  0.00     0.167 HD
ENDBRANCH  51  53
ENDBRANCH  50  51
ENDBRANCH  49  50
ENDBRANCH  24  49
BRANCH  21  55
ATOM     55  C   UNK d   0     -16.901  -7.678  10.099  0.00  0.00     0.151 C 
BRANCH  55  56
ATOM     56  C   UNK d   0     -16.870  -9.146  10.197  0.00  0.00     0.143 C 
ATOM     57  O   UNK d   0     -16.852  -9.749  11.288  0.00  0.00    -0.650 OA
BRANCH  56  58
ATOM     58  O   UNK d   0     -16.859  -9.876   9.009  0.00  0.00    -0.776 OA
ATOM     59  H   UNK d   0     -16.124  -9.600   8.334  0.00  0.00     0.167 HD
ENDBRANCH  56  58
ENDBRANCH  55  56
ENDBRANCH  21  55
BRANCH  18  60
ATOM     60  C   UNK d   0     -16.105  -5.897   5.099  0.00  0.00     0.151 C 
BRANCH  60  61
ATOM     61  C   UNK d   0     -16.025  -4.604   5.796  0.00  0.00     0.143 C 
ATOM     62  O   UNK d   0     -16.182  -3.485   5.307  0.00  0.00    -0.650 OA
BRANCH  61  63
ATOM     63  O   UNK d   0     -15.736  -4.684   7.180  0.00  0.00    -0.776 OA
ATOM     64  H   UNK d   0     -14.942  -5.200   7.515  0.00  0.00     0.167 HD
ENDBRANCH  61  63
ENDBRANCH  60  61
ENDBRANCH  18  60
BRANCH  14  65
ATOM     65  C   UNK d   0     -17.634  -5.327   2.540  0.00  0.00     0.052 C 
BRANCH  65  66
ATOM     66  C   UNK d   0     -17.208  -6.386   1.585  0.00  0.00     0.115 C 
BRANCH  66  67
ATOM     67  C   UNK d   0     -18.059  -6.733   0.482  0.00  0.00     0.139 C 
ATOM     68  O   UNK d   0     -18.735  -5.799  -0.089  0.00  0.00    -0.650 OA
BRANCH  67  69
ATOM     69  O   UNK d   0     -18.261  -7.994  -0.077  0.00  0.00    -0.776 OA
ATOM     70  H   UNK d   0     -17.451  -8.631  -0.049  0.00  0.00     0.167 HD
ENDBRANCH  67  69
ENDBRANCH  66  67
ENDBRANCH  65  66
ENDBRANCH  14  65
ENDBRANCH   6   7
ENDBRANCH   5   6
ENDBRANCH   2   5
TORSDOF 28
ENDMDL
MODEL 4
REMARK VINA RESULT:      -9.4      4.962      8.455
REMARK  28 active torsions:
REMARK  status: ('A' for Active; 'I' for Inactive)
REMARK    1  A    between atoms: C_2  and  O_3 
REMARK    2  A    between atoms: C_2  and  C_4 
REMARK    3  A    between atoms: C_4  and  C_5 
REMARK    4  A    between atoms: C_5  and  C_6 
REMARK    5  A    between atoms: C_7  and  C_8 
REMARK    6  A    between atoms: C_8  and  C_9 
REMARK    7  A    between atoms: C_9  and  O_11 
REMARK    8  A    between atoms: C_28  and  C_29 
REMARK    9  A    between atoms: C_29  and  C_30 
REMARK   10  A    between atoms: C_30  and  O_32 
REMARK   11  A    between atoms: C_33  and  C_34 
REMARK   12  A    between atoms: C_34  and  C_35 
REMARK   13  A    between atoms: C_35  and  C_36 
REMARK   14  A    between atoms: C_36  and  O_38 
REMARK   15  A    between atoms: C_39  and  C_40 
REMARK   16  A    between atoms: C_40  and  C_41 
REMARK   17  A    between atoms: C_41  and  C_42 
REMARK   18  A    between atoms: C_42  and  O_44 
REMARK   19  A    between atoms: C_45  and  C_46 
REMARK   20  A    between atoms: C_46  and  C_47 
REMARK   21  A    between atoms: C_47  and  O_49 
REMARK   22  A    between atoms: C_50  and  C_51 
REMARK   23  A    between atoms: C_51  and  C_52 
REMARK   24  A    between atoms: C_52  and  O_54 
REMARK   25  A    between atoms: C_55  and  C_56 
REMARK   26  A    between atoms: C_56  and  C_57 
REMARK   27  A    between atoms: C_57  and  C_58 
REMARK   28  A    between atoms: C_58  and  O_60 
ROOT
ATOM      1  O   UNK d   0     -30.000   2.011   9.273  0.00  0.00    -0.650 OA
ATOM      2  C   UNK d   0     -29.466   1.463   8.283  0.00  0.00     0.139 C 
ENDROOT
BRANCH   2   3
ATOM      3  O   UNK d   0     -28.142   1.712   8.007  0.00  0.00    -0.776 OA
ATOM      4  H   UNK d   0     -27.431   1.650   8.739  0.00  0.00     0.167 HD
ENDBRANCH   2   3
BRANCH   2   5
ATOM      5  C   UNK d   0     -30.261   0.551   7.413  0.00  0.00     0.115 C 
BRANCH   5   6
ATOM      6  C   UNK d   0     -30.394  -0.800   8.063  0.00  0.00     0.052 C 
BRANCH   6   7
ATOM      7  C   UNK d   0     -29.101  -1.579   8.052  0.00  0.00    -0.020 A 
ATOM      8  C   UNK d   0     -28.501  -2.146   9.068  0.00  0.00    -0.011 A 
ATOM      9  C   UNK d   0     -27.286  -2.772   8.575  0.00  0.00     0.067 A 
ATOM     10  C   UNK d   0     -26.243  -3.532   9.127  0.00  0.00     0.062 C 
ATOM     11  N   UNK d   0     -27.221  -2.531   7.249  0.00  0.00    -0.248 NA
ATOM     12  C   UNK d   0     -25.291  -4.290   8.437  0.00  0.00     0.041 A 
ATOM     13  N   UNK d   0     -24.581  -4.022   7.325  0.00  0.00    -0.355 N 
ATOM     14  C   UNK d   0     -25.003  -5.593   8.885  0.00  0.00    -0.022 A 
ATOM     15  C   UNK d   0     -23.856  -5.124   7.051  0.00  0.00     0.042 A 
ATOM     16  H   UNK d   0     -24.577  -3.067   6.756  0.00  0.00     0.166 HD
ATOM     17  C   UNK d   0     -22.947  -5.382   6.006  0.00  0.00     0.062 C 
ATOM     18  C   UNK d   0     -24.095  -6.130   8.007  0.00  0.00    -0.013 A 
ATOM     19  C   UNK d   0     -23.071  -5.109   4.668  0.00  0.00     0.067 A 
ATOM     20  N   UNK d   0     -24.085  -4.320   4.303  0.00  0.00    -0.248 NA
ATOM     21  C   UNK d   0     -22.359  -5.479   3.455  0.00  0.00    -0.011 A 
ATOM     22  C   UNK d   0     -24.089  -4.149   2.940  0.00  0.00     0.066 A 
ATOM     23  C   UNK d   0     -25.073  -3.317   2.426  0.00  0.00     0.062 C 
ATOM     24  C   UNK d   0     -22.963  -4.917   2.448  0.00  0.00    -0.020 A 
ATOM     25  C   UNK d   0     -26.012  -2.555   3.137  0.00  0.00     0.041 A 
ATOM     26  N   UNK d   0     -26.729  -2.827   4.234  0.00  0.00    -0.355 N 
ATOM     27  C   UNK d   0     -26.297  -1.246   2.690  0.00  0.00    -0.022 A 
ATOM     28  C   UNK d   0     -27.459  -1.733   4.505  0.00  0.00     0.042 A 
ATOM     29  H   UNK d   0     -26.740  -3.791   4.799  0.00  0.00     0.166 HD
ATOM     30  C   UNK d   0     -28.374  -1.465   5.535  0.00  0.00     0.062 C 
ATOM     31  C   UNK d   0     -27.211  -0.718   3.550  0.00  0.00    -0.013 A 
ATOM     32  C   UNK d   0     -28.284  -1.819   6.872  0.00  0.00     0.066 A 
BRANCH   8  33
ATOM     33  C   UNK d   0     -28.956  -2.155  10.471  0.00  0.00     0.151 C 
BRANCH  33  34
ATOM     34  C   UNK d   0     -29.446  -3.477  10.903  0.00  0.00     0.143 C 
ATOM     35  O   UNK d   0     -30.440  -3.992  10.372  0.00  0.00    -0.650 OA
BRANCH  34  36
ATOM     36  O   UNK d   0     -28.789  -4.144  11.911  0.00  0.00    -0.776 OA
ATOM     37  H   UNK d   0     -29.106  -4.082  12.888  0.00  0.00     0.167 HD
ENDBRANCH  34  36
ENDBRANCH  33  34
ENDBRANCH   8  33
BRANCH  31  38
ATOM     38  C   UNK d   0     -27.804   0.669   3.479  0.00  0.00     0.151 C 
BRANCH  38  39
ATOM     39  C   UNK d   0     -27.082   1.631   4.285  0.00  0.00     0.143 C 
ATOM     40  O   UNK d   0     -25.871   1.862   4.118  0.00  0.00    -0.650 OA
BRANCH  39  41
ATOM     41  O   UNK d   0     -27.755   2.330   5.286  0.00  0.00    -0.776 OA
ATOM     42  H   UNK d   0     -28.593   2.847   5.005  0.00  0.00     0.167 HD
ENDBRANCH  39  41
ENDBRANCH  38  39
ENDBRANCH  31  38
BRANCH  27  43
ATOM     43  C   UNK d   0     -25.746  -0.498   1.502  0.00  0.00     0.052 C 
BRANCH  43  44
ATOM     44  C   UNK d   0     -26.244  -1.019   0.193  0.00  0.00     0.115 C 
BRANCH  44  45
ATOM     45  C   UNK d   0     -27.365  -0.133  -0.217  0.00  0.00     0.139 C 
ATOM     46  O   UNK d   0     -28.205  -0.582  -1.036  0.00  0.00    -0.650 OA
BRANCH  45  47
ATOM     47  O   UNK d   0     -27.520   1.148   0.266  0.00  0.00    -0.776 OA
ATOM     48  H   UNK d   0     -27.646   1.968  -0.350  0.00  0.00     0.167 HD
ENDBRANCH  45  47
ENDBRANCH  44  45
ENDBRANCH  43  44
ENDBRANCH  27  43
BRANCH  24  49
ATOM     49  C   UNK d   0     -22.552  -4.997   1.036  0.00  0.00     0.052 C 
BRANCH  49  50
ATOM     50  C   UNK d   0     -23.469  -5.919   0.274  0.00  0.00     0.115 C 
BRANCH  50  51
ATOM     51  C   UNK d   0     -23.621  -5.674  -1.154  0.00  0.00     0.139 C 
ATOM     52  O   UNK d   0     -24.204  -4.661  -1.608  0.00  0.00    -0.650 OA
BRANCH  51  53
ATOM     53  O   UNK d   0     -23.111  -6.586  -2.065  0.00  0.00    -0.776 OA
ATOM     54  H   UNK d   0     -22.184  -6.433  -2.423  0.00  0.00     0.167 HD
ENDBRANCH  51  53
ENDBRANCH  50  51
ENDBRANCH  49  50
ENDBRANCH  24  49
BRANCH  21  55
ATOM     55  C   UNK d   0     -21.148  -6.351   3.431  0.00  0.00     0.151 C 
BRANCH  55  56
ATOM     56  C   UNK d   0     -19.940  -5.629   3.861  0.00  0.00     0.143 C 
ATOM     57  O   UNK d   0     -19.495  -5.691   5.024  0.00  0.00    -0.650 OA
BRANCH  56  58
ATOM     58  O   UNK d   0     -19.279  -4.849   2.914  0.00  0.00    -0.776 OA
ATOM     59  H   UNK d   0     -18.416  -4.388   3.255  0.00  0.00     0.167 HD
ENDBRANCH  56  58
ENDBRANCH  55  56
ENDBRANCH  21  55
BRANCH  18  60
ATOM     60  C   UNK d   0     -23.516  -7.520   8.104  0.00  0.00     0.151 C 
BRANCH  60  61
ATOM     61  C   UNK d   0     -24.158  -8.300   7.035  0.00  0.00     0.143 C 
ATOM     62  O   UNK d   0     -25.338  -8.648   6.976  0.00  0.00    -0.650 OA
BRANCH  61  63
ATOM     63  O   UNK d   0     -23.305  -8.679   5.971  0.00  0.00    -0.776 OA
ATOM     64  H   UNK d   0     -22.427  -8.215   5.820  0.00  0.00     0.167 HD
ENDBRANCH  61  63
ENDBRANCH  60  61
ENDBRANCH  18  60
BRANCH  14  65
ATOM     65  C   UNK d   0     -25.443  -6.324  10.121  0.00  0.00     0.052 C 
BRANCH  65  66
ATOM     66  C   UNK d   0     -26.452  -7.381   9.844  0.00  0.00     0.115 C 
BRANCH  66  67
ATOM     67  C   UNK d   0     -26.275  -8.696  10.393  0.00  0.00     0.139 C 
ATOM     68  O   UNK d   0     -26.730  -8.936  11.572  0.00  0.00    -0.650 OA
BRANCH  67  69
ATOM     69  O   UNK d   0     -25.650  -9.792   9.798  0.00  0.00    -0.776 OA
ATOM     70  H   UNK d   0     -26.279 -10.505   9.402  0.00  0.00     0.167 HD
ENDBRANCH  67  69
ENDBRANCH  66  67
ENDBRANCH  65  66
ENDBRANCH  14  65
ENDBRANCH   6   7
ENDBRANCH   5   6
ENDBRANCH   2   5
TORSDOF 28
ENDMDL
MODEL 5
REMARK VINA RESULT:      -9.4      2.158      7.744
REMARK  28 active torsions:
REMARK  status: ('A' for Active; 'I' for Inactive)
REMARK    1  A    between atoms: C_2  and  O_3 
REMARK    2  A    between atoms: C_2  and  C_4 
REMARK    3  A    between atoms: C_4  and  C_5 
REMARK    4  A    between atoms: C_5  and  C_6 
REMARK    5  A    between atoms: C_7  and  C_8 
REMARK    6  A    between atoms: C_8  and  C_9 
REMARK    7  A    between atoms: C_9  and  O_11 
REMARK    8  A    between atoms: C_28  and  C_29 
REMARK    9  A    between atoms: C_29  and  C_30 
REMARK   10  A    between atoms: C_30  and  O_32 
REMARK   11  A    between atoms: C_33  and  C_34 
REMARK   12  A    between atoms: C_34  and  C_35 
REMARK   13  A    between atoms: C_35  and  C_36 
REMARK   14  A    between atoms: C_36  and  O_38 
REMARK   15  A    between atoms: C_39  and  C_40 
REMARK   16  A    between atoms: C_40  and  C_41 
REMARK   17  A    between atoms: C_41  and  C_42 
REMARK   18  A    between atoms: C_42  and  O_44 
REMARK   19  A    between atoms: C_45  and  C_46 
REMARK   20  A    between atoms: C_46  and  C_47 
REMARK   21  A    between atoms: C_47  and  O_49 
REMARK   22  A    between atoms: C_50  and  C_51 
REMARK   23  A    between atoms: C_51  and  C_52 
REMARK   24  A    between atoms: C_52  and  O_54 
REMARK   25  A    between atoms: C_55  and  C_56 
REMARK   26  A    between atoms: C_56  and  C_57 
REMARK   27  A    between atoms: C_57  and  C_58 
REMARK   28  A    between atoms: C_58  and  O_60 
ROOT
ATOM      1  O   UNK d   0     -25.908  -3.024   6.813  0.00  0.00    -0.650 OA
ATOM      2  C   UNK d   0     -25.210  -2.586   5.872  0.00  0.00     0.139 C 
ENDROOT
BRANCH   2   3
ATOM      3  O   UNK d   0     -23.978  -2.042   6.144  0.00  0.00    -0.776 OA
ATOM      4  H   UNK d   0     -23.841  -1.030   6.167  0.00  0.00     0.167 HD
ENDBRANCH   2   3
BRANCH   2   5
ATOM      5  C   UNK d   0     -25.714  -2.655   4.471  0.00  0.00     0.115 C 
BRANCH   5   6
ATOM      6  C   UNK d   0     -25.964  -4.087   4.080  0.00  0.00     0.052 C 
BRANCH   6   7
ATOM      7  C   UNK d   0     -24.902  -4.631   3.155  0.00  0.00    -0.020 A 
ATOM      8  C   UNK d   0     -24.987  -4.813   1.862  0.00  0.00    -0.011 A 
ATOM      9  C   UNK d   0     -23.722  -5.365   1.407  0.00  0.00     0.067 A 
ATOM     10  C   UNK d   0     -23.172  -5.754   0.175  0.00  0.00     0.062 C 
ATOM     11  N   UNK d   0     -22.927  -5.493   2.490  0.00  0.00    -0.248 NA
ATOM     12  C   UNK d   0     -21.825  -6.007  -0.109  0.00  0.00     0.041 A 
ATOM     13  N   UNK d   0     -20.883  -6.672   0.585  0.00  0.00    -0.355 N 
ATOM     14  C   UNK d   0     -21.263  -5.462  -1.277  0.00  0.00    -0.022 A 
ATOM     15  C   UNK d   0     -19.735  -6.558  -0.109  0.00  0.00     0.042 A 
ATOM     16  H   UNK d   0     -21.031  -7.229   1.537  0.00  0.00     0.166 HD
ATOM     17  C   UNK d   0     -18.448  -7.063   0.164  0.00  0.00     0.062 C 
ATOM     18  C   UNK d   0     -19.933  -5.805  -1.283  0.00  0.00    -0.013 A 
ATOM     19  C   UNK d   0     -17.754  -7.061   1.347  0.00  0.00     0.067 A 
ATOM     20  N   UNK d   0     -18.433  -6.722   2.446  0.00  0.00    -0.248 NA
ATOM     21  C   UNK d   0     -16.386  -7.333   1.756  0.00  0.00    -0.011 A 
ATOM     22  C   UNK d   0     -17.608  -6.751   3.544  0.00  0.00     0.066 A 
ATOM     23  C   UNK d   0     -18.196  -6.454   4.765  0.00  0.00     0.062 C 
ATOM     24  C   UNK d   0     -16.306  -7.145   3.042  0.00  0.00    -0.020 A 
ATOM     25  C   UNK d   0     -19.553  -6.215   5.031  0.00  0.00     0.041 A 
ATOM     26  N   UNK d   0     -20.486  -5.541   4.348  0.00  0.00    -0.355 N 
ATOM     27  C   UNK d   0     -20.118  -6.766   6.202  0.00  0.00    -0.022 A 
ATOM     28  C   UNK d   0     -21.630  -5.646   5.043  0.00  0.00     0.042 A 
ATOM     29  H   UNK d   0     -20.334  -4.973   3.398  0.00  0.00     0.166 HD
ATOM     30  C   UNK d   0     -22.915  -5.141   4.788  0.00  0.00     0.062 C 
ATOM     31  C   UNK d   0     -21.432  -6.411   6.217  0.00  0.00    -0.013 A 
ATOM     32  C   UNK d   0     -23.579  -5.068   3.574  0.00  0.00     0.066 A 
BRANCH   8  33
ATOM     33  C   UNK d   0     -26.149  -4.522   1.002  0.00  0.00     0.151 C 
BRANCH  33  34
ATOM     34  C   UNK d   0     -27.079  -5.661   0.895  0.00  0.00     0.143 C 
ATOM     35  O   UNK d   0     -27.993  -5.815   1.717  0.00  0.00    -0.650 OA
BRANCH  34  36
ATOM     36  O   UNK d   0     -26.926  -6.563  -0.132  0.00  0.00    -0.776 OA
ATOM     37  H   UNK d   0     -26.004  -6.960  -0.362  0.00  0.00     0.167 HD
ENDBRANCH  34  36
ENDBRANCH  33  34
ENDBRANCH   8  33
BRANCH  31  38
ATOM     38  C   UNK d   0     -22.444  -6.786   7.274  0.00  0.00     0.151 C 
BRANCH  38  39
ATOM     39  C   UNK d   0     -23.253  -7.927   6.898  0.00  0.00     0.143 C 
ATOM     40  O   UNK d   0     -24.277  -8.251   7.524  0.00  0.00    -0.650 OA
BRANCH  39  41
ATOM     41  O   UNK d   0     -22.882  -8.697   5.797  0.00  0.00    -0.776 OA
ATOM     42  H   UNK d   0     -23.314  -9.623   5.715  0.00  0.00     0.167 HD
ENDBRANCH  39  41
ENDBRANCH  38  39
ENDBRANCH  31  38
BRANCH  27  43
ATOM     43  C   UNK d   0     -19.468  -7.595   7.281  0.00  0.00     0.052 C 
BRANCH  43  44
ATOM     44  C   UNK d   0     -19.011  -6.787   8.452  0.00  0.00     0.115 C 
BRANCH  44  45
ATOM     45  C   UNK d   0     -17.779  -7.442   8.965  0.00  0.00     0.139 C 
ATOM     46  O   UNK d   0     -17.436  -8.537   8.455  0.00  0.00    -0.650 OA
BRANCH  45  47
ATOM     47  O   UNK d   0     -17.004  -6.897   9.965  0.00  0.00    -0.776 OA
ATOM     48  H   UNK d   0     -16.824  -5.883  10.045  0.00  0.00     0.167 HD
ENDBRANCH  45  47
ENDBRANCH  44  45
ENDBRANCH  43  44
ENDBRANCH  27  43
BRANCH  24  49
ATOM     49  C   UNK d   0     -15.109  -7.346   3.877  0.00  0.00     0.052 C 
BRANCH  49  50
ATOM     50  C   UNK d   0     -14.721  -6.058   4.556  0.00  0.00     0.115 C 
BRANCH  50  51
ATOM     51  C   UNK d   0     -14.162  -5.006   3.717  0.00  0.00     0.139 C 
ATOM     52  O   UNK d   0     -14.855  -4.067   3.260  0.00  0.00    -0.650 OA
BRANCH  51  53
ATOM     53  O   UNK d   0     -12.814  -5.028   3.396  0.00  0.00    -0.776 OA
ATOM     54  H   UNK d   0     -12.545  -5.384   2.495  0.00  0.00     0.167 HD
ENDBRANCH  51  53
ENDBRANCH  50  51
ENDBRANCH  49  50
ENDBRANCH  24  49
BRANCH  21  55
ATOM     55  C   UNK d   0     -15.303  -7.756   0.820  0.00  0.00     0.151 C 
BRANCH  55  56
ATOM     56  C   UNK d   0     -14.411  -6.641   0.469  0.00  0.00     0.143 C 
ATOM     57  O   UNK d   0     -13.194  -6.638   0.739  0.00  0.00    -0.650 OA
BRANCH  56  58
ATOM     58  O   UNK d   0     -14.968  -5.549  -0.195  0.00  0.00    -0.776 OA
ATOM     59  H   UNK d   0     -15.862  -5.743  -0.681  0.00  0.00     0.167 HD
ENDBRANCH  56  58
ENDBRANCH  55  56
ENDBRANCH  21  55
BRANCH  18  60
ATOM     60  C   UNK d   0     -18.945  -5.419  -2.355  0.00  0.00     0.151 C 
BRANCH  60  61
ATOM     61  C   UNK d   0     -18.605  -6.665  -3.059  0.00  0.00     0.143 C 
ATOM     62  O   UNK d   0     -17.515  -6.969  -3.544  0.00  0.00    -0.650 OA
BRANCH  61  63
ATOM     63  O   UNK d   0     -19.663  -7.598  -3.176  0.00  0.00    -0.776 OA
ATOM     64  H   UNK d   0     -20.381  -7.484  -3.870  0.00  0.00     0.167 HD
ENDBRANCH  61  63
ENDBRANCH  60  61
ENDBRANCH  18  60
BRANCH  14  65
ATOM     65  C   UNK d   0     -21.901  -4.734  -2.426  0.00  0.00     0.052 C 
BRANCH  65  66
ATOM     66  C   UNK d   0     -22.084  -3.281  -2.164  0.00  0.00     0.115 C 
BRANCH  66  67
ATOM     67  C   UNK d   0     -23.093  -2.847  -1.240  0.00  0.00     0.139 C 
ATOM     68  O   UNK d   0     -24.327  -3.051  -1.539  0.00  0.00    -0.650 OA
BRANCH  67  69
ATOM     69  O   UNK d   0     -22.910  -2.207  -0.015  0.00  0.00    -0.776 OA
ATOM     70  H   UNK d   0     -22.910  -1.177  -0.043  0.00  0.00     0.167 HD
ENDBRANCH  67  69
ENDBRANCH  66  67
ENDBRANCH  65  66
ENDBRANCH  14  65
ENDBRANCH   6   7
ENDBRANCH   5   6
ENDBRANCH   2   5
TORSDOF 28
ENDMDL
MODEL 6
REMARK VINA RESULT:      -9.4      1.453      2.034
REMARK  28 active torsions:
REMARK  status: ('A' for Active; 'I' for Inactive)
REMARK    1  A    between atoms: C_2  and  O_3 
REMARK    2  A    between atoms: C_2  and  C_4 
REMARK    3  A    between atoms: C_4  and  C_5 
REMARK    4  A    between atoms: C_5  and  C_6 
REMARK    5  A    between atoms: C_7  and  C_8 
REMARK    6  A    between atoms: C_8  and  C_9 
REMARK    7  A    between atoms: C_9  and  O_11 
REMARK    8  A    between atoms: C_28  and  C_29 
REMARK    9  A    between atoms: C_29  and  C_30 
REMARK   10  A    between atoms: C_30  and  O_32 
REMARK   11  A    between atoms: C_33  and  C_34 
REMARK   12  A    between atoms: C_34  and  C_35 
REMARK   13  A    between atoms: C_35  and  C_36 
REMARK   14  A    between atoms: C_36  and  O_38 
REMARK   15  A    between atoms: C_39  and  C_40 
REMARK   16  A    between atoms: C_40  and  C_41 
REMARK   17  A    between atoms: C_41  and  C_42 
REMARK   18  A    between atoms: C_42  and  O_44 
REMARK   19  A    between atoms: C_45  and  C_46 
REMARK   20  A    between atoms: C_46  and  C_47 
REMARK   21  A    between atoms: C_47  and  O_49 
REMARK   22  A    between atoms: C_50  and  C_51 
REMARK   23  A    between atoms: C_51  and  C_52 
REMARK   24  A    between atoms: C_52  and  O_54 
REMARK   25  A    between atoms: C_55  and  C_56 
REMARK   26  A    between atoms: C_56  and  C_57 
REMARK   27  A    between atoms: C_57  and  C_58 
REMARK   28  A    between atoms: C_58  and  O_60 
ROOT
ATOM      1  O   UNK d   0     -27.259  -4.941   1.755  0.00  0.00    -0.650 OA
ATOM      2  C   UNK d   0     -26.598  -3.897   1.952  0.00  0.00     0.139 C 
ENDROOT
BRANCH   2   3
ATOM      3  O   UNK d   0     -26.615  -2.900   1.007  0.00  0.00    -0.776 OA
ATOM      4  H   UNK d   0     -25.858  -2.805   0.326  0.00  0.00     0.167 HD
ENDBRANCH   2   3
BRANCH   2   5
ATOM      5  C   UNK d   0     -25.800  -3.742   3.202  0.00  0.00     0.115 C 
BRANCH   5   6
ATOM      6  C   UNK d   0     -25.298  -5.083   3.665  0.00  0.00     0.052 C 
BRANCH   6   7
ATOM      7  C   UNK d   0     -23.792  -5.184   3.627  0.00  0.00    -0.020 A 
ATOM      8  C   UNK d   0     -22.967  -5.205   4.642  0.00  0.00    -0.011 A 
ATOM      9  C   UNK d   0     -21.616  -5.304   4.116  0.00  0.00     0.067 A 
ATOM     10  C   UNK d   0     -20.323  -5.388   4.655  0.00  0.00     0.062 C 
ATOM     11  N   UNK d   0     -21.712  -5.332   2.770  0.00  0.00    -0.248 NA
ATOM     12  C   UNK d   0     -19.150  -5.760   3.989  0.00  0.00     0.041 A 
ATOM     13  N   UNK d   0     -18.680  -5.432   2.771  0.00  0.00    -0.355 N 
ATOM     14  C   UNK d   0     -18.278  -6.676   4.607  0.00  0.00    -0.022 A 
ATOM     15  C   UNK d   0     -17.537  -6.121   2.596  0.00  0.00     0.042 A 
ATOM     16  H   UNK d   0     -19.137  -4.712   2.057  0.00  0.00     0.166 HD
ATOM     17  C   UNK d   0     -16.645  -6.149   1.506  0.00  0.00     0.062 C 
ATOM     18  C   UNK d   0     -17.253  -6.913   3.726  0.00  0.00    -0.013 A 
ATOM     19  C   UNK d   0     -16.923  -6.234   0.165  0.00  0.00     0.067 A 
ATOM     20  N   UNK d   0     -18.198  -6.076  -0.199  0.00  0.00    -0.248 NA
ATOM     21  C   UNK d   0     -16.159  -6.481  -1.046  0.00  0.00    -0.011 A 
ATOM     22  C   UNK d   0     -18.324  -6.202  -1.561  0.00  0.00     0.066 A 
ATOM     23  C   UNK d   0     -19.596  -6.022  -2.081  0.00  0.00     0.062 C 
ATOM     24  C   UNK d   0     -16.985  -6.465  -2.052  0.00  0.00    -0.020 A 
ATOM     25  C   UNK d   0     -20.759  -5.636  -1.397  0.00  0.00     0.041 A 
ATOM     26  N   UNK d   0     -21.234  -5.974  -0.192  0.00  0.00    -0.355 N 
ATOM     27  C   UNK d   0     -21.631  -4.714  -2.015  0.00  0.00    -0.022 A 
ATOM     28  C   UNK d   0     -22.378  -5.294  -0.019  0.00  0.00     0.042 A 
ATOM     29  H   UNK d   0     -20.779  -6.706   0.520  0.00  0.00     0.166 HD
ATOM     30  C   UNK d   0     -23.281  -5.265   1.056  0.00  0.00     0.062 C 
ATOM     31  C   UNK d   0     -22.658  -4.491  -1.150  0.00  0.00    -0.013 A 
ATOM     32  C   UNK d   0     -22.995  -5.264   2.412  0.00  0.00     0.066 A 
BRANCH   8  33
ATOM     33  C   UNK d   0     -23.322  -5.136   6.072  0.00  0.00     0.151 C 
BRANCH  33  34
ATOM     34  C   UNK d   0     -23.575  -6.462   6.662  0.00  0.00     0.143 C 
ATOM     35  O   UNK d   0     -23.294  -7.499   6.043  0.00  0.00    -0.650 OA
BRANCH  34  36
ATOM     36  O   UNK d   0     -24.131  -6.548   7.917  0.00  0.00    -0.776 OA
ATOM     37  H   UNK d   0     -24.118  -5.748   8.564  0.00  0.00     0.167 HD
ENDBRANCH  34  36
ENDBRANCH  33  34
ENDBRANCH   8  33
BRANCH  31  38
ATOM     38  C   UNK d   0     -23.829  -3.563  -1.375  0.00  0.00     0.151 C 
BRANCH  38  39
ATOM     39  C   UNK d   0     -23.620  -2.248  -0.807  0.00  0.00     0.143 C 
ATOM     40  O   UNK d   0     -22.486  -1.805  -0.553  0.00  0.00    -0.650 OA
BRANCH  39  41
ATOM     41  O   UNK d   0     -24.721  -1.439  -0.528  0.00  0.00    -0.776 OA
ATOM     42  H   UNK d   0     -24.957  -1.305   0.460  0.00  0.00     0.167 HD
ENDBRANCH  39  41
ENDBRANCH  38  39
ENDBRANCH  31  38
BRANCH  27  43
ATOM     43  C   UNK d   0     -21.527  -4.054  -3.368  0.00  0.00     0.052 C 
BRANCH  43  44
ATOM     44  C   UNK d   0     -21.728  -5.003  -4.505  0.00  0.00     0.115 C 
BRANCH  44  45
ATOM     45  C   UNK d   0     -21.209  -4.323  -5.721  0.00  0.00     0.139 C 
ATOM     46  O   UNK d   0     -21.257  -4.944  -6.811  0.00  0.00    -0.650 OA
BRANCH  45  47
ATOM     47  O   UNK d   0     -20.687  -3.048  -5.699  0.00  0.00    -0.776 OA
ATOM     48  H   UNK d   0     -21.099  -2.283  -5.140  0.00  0.00     0.167 HD
ENDBRANCH  45  47
ENDBRANCH  44  45
ENDBRANCH  43  44
ENDBRANCH  27  43
BRANCH  24  49
ATOM     49  C   UNK d   0     -16.629  -6.634  -3.472  0.00  0.00     0.052 C 
BRANCH  49  50
ATOM     50  C   UNK d   0     -16.480  -8.096  -3.805  0.00  0.00     0.115 C 
BRANCH  50  51
ATOM     51  C   UNK d   0     -17.469  -9.009  -3.246  0.00  0.00     0.139 C 
ATOM     52  O   UNK d   0     -17.226  -9.750  -2.265  0.00  0.00    -0.650 OA
BRANCH  51  53
ATOM     53  O   UNK d   0     -18.734  -9.079  -3.810  0.00  0.00    -0.776 OA
ATOM     54  H   UNK d   0     -19.231  -9.950  -3.753  0.00  0.00     0.167 HD
ENDBRANCH  51  53
ENDBRANCH  50  51
ENDBRANCH  49  50
ENDBRANCH  24  49
BRANCH  21  55
ATOM     55  C   UNK d   0     -14.683  -6.703  -1.073  0.00  0.00     0.151 C 
BRANCH  55  56
ATOM     56  C   UNK d   0     -13.940  -5.447  -1.259  0.00  0.00     0.143 C 
ATOM     57  O   UNK d   0     -14.217  -4.626  -2.156  0.00  0.00    -0.650 OA
BRANCH  56  58
ATOM     58  O   UNK d   0     -12.886  -5.181  -0.386  0.00  0.00    -0.776 OA
ATOM     59  H   UNK d   0     -13.162  -4.737   0.508  0.00  0.00     0.167 HD
ENDBRANCH  56  58
ENDBRANCH  55  56
ENDBRANCH  21  55
BRANCH  18  60
ATOM     60  C   UNK d   0     -16.093  -7.844   3.979  0.00  0.00     0.151 C 
BRANCH  60  61
ATOM     61  C   UNK d   0     -14.943  -6.982   4.291  0.00  0.00     0.143 C 
ATOM     62  O   UNK d   0     -14.867  -6.143   5.189  0.00  0.00    -0.650 OA
BRANCH  61  63
ATOM     63  O   UNK d   0     -13.815  -7.157   3.455  0.00  0.00    -0.776 OA
ATOM     64  H   UNK d   0     -13.451  -8.073   3.259  0.00  0.00     0.167 HD
ENDBRANCH  61  63
ENDBRANCH  60  61
ENDBRANCH  18  60
BRANCH  14  65
ATOM     65  C   UNK d   0     -18.290  -7.261   5.990  0.00  0.00     0.052 C 
BRANCH  65  66
ATOM     66  C   UNK d   0     -17.788  -6.318   7.025  0.00  0.00     0.115 C 
BRANCH  66  67
ATOM     67  C   UNK d   0     -17.950  -6.636   8.416  0.00  0.00     0.139 C 
ATOM     68  O   UNK d   0     -16.988  -7.231   9.026  0.00  0.00    -0.650 OA
BRANCH  67  69
ATOM     69  O   UNK d   0     -19.055  -6.376   9.227  0.00  0.00    -0.776 OA
ATOM     70  H   UNK d   0     -19.972  -6.622   8.827  0.00  0.00     0.167 HD
ENDBRANCH  67  69
ENDBRANCH  66  67
ENDBRANCH  65  66
ENDBRANCH  14  65
ENDBRANCH   6   7
ENDBRANCH   5   6
ENDBRANCH   2   5
TORSDOF 28
ENDMDL
MODEL 7
REMARK VINA RESULT:      -9.3      3.008      8.542
REMARK  28 active torsions:
REMARK  status: ('A' for Active; 'I' for Inactive)
REMARK    1  A    between atoms: C_2  and  O_3 
REMARK    2  A    between atoms: C_2  and  C_4 
REMARK    3  A    between atoms: C_4  and  C_5 
REMARK    4  A    between atoms: C_5  and  C_6 
REMARK    5  A    between atoms: C_7  and  C_8 
REMARK    6  A    between atoms: C_8  and  C_9 
REMARK    7  A    between atoms: C_9  and  O_11 
REMARK    8  A    between atoms: C_28  and  C_29 
REMARK    9  A    between atoms: C_29  and  C_30 
REMARK   10  A    between atoms: C_30  and  O_32 
REMARK   11  A    between atoms: C_33  and  C_34 
REMARK   12  A    between atoms: C_34  and  C_35 
REMARK   13  A    between atoms: C_35  and  C_36 
REMARK   14  A    between atoms: C_36  and  O_38 
REMARK   15  A    between atoms: C_39  and  C_40 
REMARK   16  A    between atoms: C_40  and  C_41 
REMARK   17  A    between atoms: C_41  and  C_42 
REMARK   18  A    between atoms: C_42  and  O_44 
REMARK   19  A    between atoms: C_45  and  C_46 
REMARK   20  A    between atoms: C_46  and  C_47 
REMARK   21  A    between atoms: C_47  and  O_49 
REMARK   22  A    between atoms: C_50  and  C_51 
REMARK   23  A    between atoms: C_51  and  C_52 
REMARK   24  A    between atoms: C_52  and  O_54 
REMARK   25  A    between atoms: C_55  and  C_56 
REMARK   26  A    between atoms: C_56  and  C_57 
REMARK   27  A    between atoms: C_57  and  C_58 
REMARK   28  A    between atoms: C_58  and  O_60 
ROOT
ATOM      1  O   UNK d   0     -28.212  -3.733   9.663  0.00  0.00    -0.650 OA
ATOM      2  C   UNK d   0     -27.172  -4.100   9.071  0.00  0.00     0.139 C 
ENDROOT
BRANCH   2   3
ATOM      3  O   UNK d   0     -27.187  -5.266   8.344  0.00  0.00    -0.776 OA
ATOM      4  H   UNK d   0     -26.397  -5.528   7.751  0.00  0.00     0.167 HD
ENDBRANCH   2   3
BRANCH   2   5
ATOM      5  C   UNK d   0     -25.932  -3.278   9.158  0.00  0.00     0.115 C 
BRANCH   5   6
ATOM      6  C   UNK d   0     -26.001  -2.134   8.184  0.00  0.00     0.052 C 
BRANCH   6   7
ATOM      7  C   UNK d   0     -25.857  -2.582   6.749  0.00  0.00    -0.020 A 
ATOM      8  C   UNK d   0     -26.698  -2.389   5.765  0.00  0.00    -0.011 A 
ATOM      9  C   UNK d   0     -26.138  -3.007   4.574  0.00  0.00     0.067 A 
ATOM     10  C   UNK d   0     -26.515  -3.136   3.228  0.00  0.00     0.062 C 
ATOM     11  N   UNK d   0     -24.957  -3.558   4.926  0.00  0.00    -0.248 NA
ATOM     12  C   UNK d   0     -25.706  -3.530   2.157  0.00  0.00     0.041 A 
ATOM     13  N   UNK d   0     -24.790  -4.511   2.052  0.00  0.00    -0.355 N 
ATOM     14  C   UNK d   0     -25.758  -2.795   0.959  0.00  0.00    -0.022 A 
ATOM     15  C   UNK d   0     -24.253  -4.412   0.821  0.00  0.00     0.042 A 
ATOM     16  H   UNK d   0     -24.541  -5.271   2.826  0.00  0.00     0.166 HD
ATOM     17  C   UNK d   0     -23.256  -5.186   0.194  0.00  0.00     0.062 C 
ATOM     18  C   UNK d   0     -24.835  -3.348   0.106  0.00  0.00    -0.013 A 
ATOM     19  C   UNK d   0     -22.059  -5.625   0.700  0.00  0.00     0.067 A 
ATOM     20  N   UNK d   0     -21.871  -5.484   2.015  0.00  0.00    -0.248 NA
ATOM     21  C   UNK d   0     -20.854  -6.229   0.158  0.00  0.00    -0.011 A 
ATOM     22  C   UNK d   0     -20.629  -5.951   2.371  0.00  0.00     0.066 A 
ATOM     23  C   UNK d   0     -20.315  -5.899   3.721  0.00  0.00     0.062 C 
ATOM     24  C   UNK d   0     -20.019  -6.413   1.140  0.00  0.00    -0.020 A 
ATOM     25  C   UNK d   0     -21.146  -5.511   4.784  0.00  0.00     0.041 A 
ATOM     26  N   UNK d   0     -22.046  -4.527   4.893  0.00  0.00    -0.355 N 
ATOM     27  C   UNK d   0     -21.096  -6.253   5.984  0.00  0.00    -0.022 A 
ATOM     28  C   UNK d   0     -22.577  -4.618   6.123  0.00  0.00     0.042 A 
ATOM     29  H   UNK d   0     -22.288  -3.758   4.118  0.00  0.00     0.166 HD
ATOM     30  C   UNK d   0     -23.562  -3.850   6.762  0.00  0.00     0.062 C 
ATOM     31  C   UNK d   0     -21.999  -5.695   6.837  0.00  0.00    -0.013 A 
ATOM     32  C   UNK d   0     -24.730  -3.336   6.222  0.00  0.00     0.066 A 
BRANCH   8  33
ATOM     33  C   UNK d   0     -27.989  -1.681   5.830  0.00  0.00     0.151 C 
BRANCH  33  34
ATOM     34  C   UNK d   0     -29.064  -2.506   6.411  0.00  0.00     0.143 C 
ATOM     35  O   UNK d   0     -29.958  -1.994   7.100  0.00  0.00    -0.650 OA
BRANCH  34  36
ATOM     36  O   UNK d   0     -29.072  -3.863   6.183  0.00  0.00    -0.776 OA
ATOM     37  H   UNK d   0     -29.316  -4.248   5.261  0.00  0.00     0.167 HD
ENDBRANCH  34  36
ENDBRANCH  33  34
ENDBRANCH   8  33
BRANCH  31  38
ATOM     38  C   UNK d   0     -22.306  -6.162   8.241  0.00  0.00     0.151 C 
BRANCH  38  39
ATOM     39  C   UNK d   0     -23.585  -6.831   8.342  0.00  0.00     0.143 C 
ATOM     40  O   UNK d   0     -23.935  -7.722   7.549  0.00  0.00    -0.650 OA
BRANCH  39  41
ATOM     41  O   UNK d   0     -24.467  -6.475   9.363  0.00  0.00    -0.776 OA
ATOM     42  H   UNK d   0     -25.463  -6.453   9.125  0.00  0.00     0.167 HD
ENDBRANCH  39  41
ENDBRANCH  38  39
ENDBRANCH  31  38
BRANCH  27  43
ATOM     43  C   UNK d   0     -20.241  -7.442   6.342  0.00  0.00     0.052 C 
BRANCH  43  44
ATOM     44  C   UNK d   0     -18.785  -7.117   6.432  0.00  0.00     0.115 C 
BRANCH  44  45
ATOM     45  C   UNK d   0     -18.385  -7.350   7.844  0.00  0.00     0.139 C 
ATOM     46  O   UNK d   0     -17.602  -8.302   8.088  0.00  0.00    -0.650 OA
BRANCH  45  47
ATOM     47  O   UNK d   0     -18.830  -6.567   8.887  0.00  0.00    -0.776 OA
ATOM     48  H   UNK d   0     -18.192  -6.120   9.565  0.00  0.00     0.167 HD
ENDBRANCH  45  47
ENDBRANCH  44  45
ENDBRANCH  43  44
ENDBRANCH  27  43
BRANCH  24  49
ATOM     49  C   UNK d   0     -18.688  -7.035   1.043  0.00  0.00     0.052 C 
BRANCH  49  50
ATOM     50  C   UNK d   0     -17.609  -5.995   1.203  0.00  0.00     0.115 C 
BRANCH  50  51
ATOM     51  C   UNK d   0     -16.947  -5.531  -0.009  0.00  0.00     0.139 C 
ATOM     52  O   UNK d   0     -15.821  -5.949  -0.366  0.00  0.00    -0.650 OA
BRANCH  51  53
ATOM     53  O   UNK d   0     -17.569  -4.588  -0.812  0.00  0.00    -0.776 OA
ATOM     54  H   UNK d   0     -17.500  -4.693  -1.809  0.00  0.00     0.167 HD
ENDBRANCH  51  53
ENDBRANCH  50  51
ENDBRANCH  49  50
ENDBRANCH  24  49
BRANCH  21  55
ATOM     55  C   UNK d   0     -20.664  -6.562  -1.285  0.00  0.00     0.151 C 
BRANCH  55  56
ATOM     56  C   UNK d   0     -20.910  -5.403  -2.156  0.00  0.00     0.143 C 
ATOM     57  O   UNK d   0     -21.827  -5.375  -2.999  0.00  0.00    -0.650 OA
BRANCH  56  58
ATOM     58  O   UNK d   0     -20.071  -4.298  -2.019  0.00  0.00    -0.776 OA
ATOM     59  H   UNK d   0     -20.137  -3.602  -2.783  0.00  0.00     0.167 HD
ENDBRANCH  56  58
ENDBRANCH  55  56
ENDBRANCH  21  55
BRANCH  18  60
ATOM     60  C   UNK d   0     -24.551  -2.862  -1.294  0.00  0.00     0.151 C 
BRANCH  60  61
ATOM     61  C   UNK d   0     -23.292  -2.106  -1.211  0.00  0.00     0.143 C 
ATOM     62  O   UNK d   0     -22.981  -1.272  -0.360  0.00  0.00    -0.650 OA
BRANCH  61  63
ATOM     63  O   UNK d   0     -22.353  -2.387  -2.233  0.00  0.00    -0.776 OA
ATOM     64  H   UNK d   0     -21.372  -2.458  -2.030  0.00  0.00     0.167 HD
ENDBRANCH  61  63
ENDBRANCH  60  61
ENDBRANCH  18  60
BRANCH  14  65
ATOM     65  C   UNK d   0     -26.674  -1.685   0.528  0.00  0.00     0.052 C 
BRANCH  65  66
ATOM     66  C   UNK d   0     -26.164  -0.336   0.894  0.00  0.00     0.115 C 
BRANCH  66  67
ATOM     67  C   UNK d   0     -26.967   0.531   1.710  0.00  0.00     0.139 C 
ATOM     68  O   UNK d   0     -27.503   1.565   1.164  0.00  0.00    -0.650 OA
BRANCH  67  69
ATOM     69  O   UNK d   0     -27.255   0.400   3.068  0.00  0.00    -0.776 OA
ATOM     70  H   UNK d   0     -27.609  -0.521   3.363  0.00  0.00     0.167 HD
ENDBRANCH  67  69
ENDBRANCH  66  67
ENDBRANCH  65  66
ENDBRANCH  14  65
ENDBRANCH   6   7
ENDBRANCH   5   6
ENDBRANCH   2   5
TORSDOF 28
ENDMDL
MODEL 8
REMARK VINA RESULT:      -9.3      2.343      3.491
REMARK  28 active torsions:
REMARK  status: ('A' for Active; 'I' for Inactive)
REMARK    1  A    between atoms: C_2  and  O_3 
REMARK    2  A    between atoms: C_2  and  C_4 
REMARK    3  A    between atoms: C_4  and  C_5 
REMARK    4  A    between atoms: C_5  and  C_6 
REMARK    5  A    between atoms: C_7  and  C_8 
REMARK    6  A    between atoms: C_8  and  C_9 
REMARK    7  A    between atoms: C_9  and  O_11 
REMARK    8  A    between atoms: C_28  and  C_29 
REMARK    9  A    between atoms: C_29  and  C_30 
REMARK   10  A    between atoms: C_30  and  O_32 
REMARK   11  A    between atoms: C_33  and  C_34 
REMARK   12  A    between atoms: C_34  and  C_35 
REMARK   13  A    between atoms: C_35  and  C_36 
REMARK   14  A    between atoms: C_36  and  O_38 
REMARK   15  A    between atoms: C_39  and  C_40 
REMARK   16  A    between atoms: C_40  and  C_41 
REMARK   17  A    between atoms: C_41  and  C_42 
REMARK   18  A    between atoms: C_42  and  O_44 
REMARK   19  A    between atoms: C_45  and  C_46 
REMARK   20  A    between atoms: C_46  and  C_47 
REMARK   21  A    between atoms: C_47  and  O_49 
REMARK   22  A    between atoms: C_50  and  C_51 
REMARK   23  A    between atoms: C_51  and  C_52 
REMARK   24  A    between atoms: C_52  and  O_54 
REMARK   25  A    between atoms: C_55  and  C_56 
REMARK   26  A    between atoms: C_56  and  C_57 
REMARK   27  A    between atoms: C_57  and  C_58 
REMARK   28  A    between atoms: C_58  and  O_60 
ROOT
ATOM      1  O   UNK d   0     -25.163  -1.618   1.502  0.00  0.00    -0.650 OA
ATOM      2  C   UNK d   0     -26.145  -2.208   2.005  0.00  0.00     0.139 C 
ENDROOT
BRANCH   2   3
ATOM      3  O   UNK d   0     -26.812  -1.628   3.057  0.00  0.00    -0.776 OA
ATOM      4  H   UNK d   0     -27.463  -2.167   3.631  0.00  0.00     0.167 HD
ENDBRANCH   2   3
BRANCH   2   5
ATOM      5  C   UNK d   0     -26.582  -3.527   1.467  0.00  0.00     0.115 C 
BRANCH   5   6
ATOM      6  C   UNK d   0     -26.596  -4.555   2.565  0.00  0.00     0.052 C 
BRANCH   6   7
ATOM      7  C   UNK d   0     -25.238  -4.751   3.196  0.00  0.00    -0.020 A 
ATOM      8  C   UNK d   0     -24.914  -4.604   4.455  0.00  0.00    -0.011 A 
ATOM      9  C   UNK d   0     -23.495  -4.891   4.586  0.00  0.00     0.067 A 
ATOM     10  C   UNK d   0     -22.563  -4.934   5.635  0.00  0.00     0.062 C 
ATOM     11  N   UNK d   0     -23.034  -5.199   3.356  0.00  0.00    -0.248 NA
ATOM     12  C   UNK d   0     -21.287  -5.507   5.611  0.00  0.00     0.041 A 
ATOM     13  N   UNK d   0     -20.317  -5.472   4.678  0.00  0.00    -0.355 N 
ATOM     14  C   UNK d   0     -20.886  -6.320   6.687  0.00  0.00    -0.022 A 
ATOM     15  C   UNK d   0     -19.315  -6.249   5.130  0.00  0.00     0.042 A 
ATOM     16  H   UNK d   0     -20.333  -4.895   3.727  0.00  0.00     0.166 HD
ATOM     17  C   UNK d   0     -18.068  -6.559   4.551  0.00  0.00     0.062 C 
ATOM     18  C   UNK d   0     -19.635  -6.798   6.386  0.00  0.00    -0.013 A 
ATOM     19  C   UNK d   0     -17.781  -6.911   3.257  0.00  0.00     0.067 A 
ATOM     20  N   UNK d   0     -18.758  -6.760   2.358  0.00  0.00    -0.248 NA
ATOM     21  C   UNK d   0     -16.632  -7.454   2.552  0.00  0.00    -0.011 A 
ATOM     22  C   UNK d   0     -18.331  -7.165   1.118  0.00  0.00     0.066 A 
ATOM     23  C   UNK d   0     -19.238  -7.025   0.078  0.00  0.00     0.062 C 
ATOM     24  C   UNK d   0     -16.962  -7.604   1.301  0.00  0.00    -0.020 A 
ATOM     25  C   UNK d   0     -20.511  -6.436   0.120  0.00  0.00     0.041 A 
ATOM     26  N   UNK d   0     -21.481  -6.482   1.041  0.00  0.00    -0.355 N 
ATOM     27  C   UNK d   0     -20.911  -5.616  -0.958  0.00  0.00    -0.022 A 
ATOM     28  C   UNK d   0     -22.486  -5.715   0.589  0.00  0.00     0.042 A 
ATOM     29  H   UNK d   0     -21.468  -7.071   1.991  0.00  0.00     0.166 HD
ATOM     30  C   UNK d   0     -23.735  -5.405   1.149  0.00  0.00     0.062 C 
ATOM     31  C   UNK d   0     -22.159  -5.156  -0.670  0.00  0.00    -0.013 A 
ATOM     32  C   UNK d   0     -24.033  -5.133   2.475  0.00  0.00     0.066 A 
BRANCH   8  33
ATOM     33  C   UNK d   0     -25.809  -4.212   5.559  0.00  0.00     0.151 C 
BRANCH  33  34
ATOM     34  C   UNK d   0     -25.910  -2.750   5.721  0.00  0.00     0.143 C 
ATOM     35  O   UNK d   0     -24.933  -2.017   5.509  0.00  0.00    -0.650 OA
BRANCH  34  36
ATOM     36  O   UNK d   0     -27.106  -2.195   6.112  0.00  0.00    -0.776 OA
ATOM     37  H   UNK d   0     -27.178  -1.197   6.356  0.00  0.00     0.167 HD
ENDBRANCH  34  36
ENDBRANCH  33  34
ENDBRANCH   8  33
BRANCH  31  38
ATOM     38  C   UNK d   0     -22.988  -4.229  -1.528  0.00  0.00     0.151 C 
BRANCH  38  39
ATOM     39  C   UNK d   0     -22.705  -2.831  -1.283  0.00  0.00     0.143 C 
ATOM     40  O   UNK d   0     -22.823  -2.316  -0.157  0.00  0.00    -0.650 OA
BRANCH  39  41
ATOM     41  O   UNK d   0     -22.282  -2.022  -2.336  0.00  0.00    -0.776 OA
ATOM     42  H   UNK d   0     -21.395  -2.273  -2.784  0.00  0.00     0.167 HD
ENDBRANCH  39  41
ENDBRANCH  38  39
ENDBRANCH  31  38
BRANCH  27  43
ATOM     43  C   UNK d   0     -20.168  -5.266  -2.223  0.00  0.00     0.052 C 
BRANCH  43  44
ATOM     44  C   UNK d   0     -20.957  -5.531  -3.464  0.00  0.00     0.115 C 
BRANCH  44  45
ATOM     45  C   UNK d   0     -20.464  -4.578  -4.492  0.00  0.00     0.139 C 
ATOM     46  O   UNK d   0     -19.420  -4.877  -5.124  0.00  0.00    -0.650 OA
BRANCH  45  47
ATOM     47  O   UNK d   0     -21.104  -3.393  -4.781  0.00  0.00    -0.776 OA
ATOM     48  H   UNK d   0     -22.127  -3.325  -4.907  0.00  0.00     0.167 HD
ENDBRANCH  45  47
ENDBRANCH  44  45
ENDBRANCH  43  44
ENDBRANCH  27  43
BRANCH  24  49
ATOM     49  C   UNK d   0     -16.083  -8.091   0.224  0.00  0.00     0.052 C 
BRANCH  49  50
ATOM     50  C   UNK d   0     -16.049  -9.598   0.215  0.00  0.00     0.115 C 
BRANCH  50  51
ATOM     51  C   UNK d   0     -17.106 -10.283  -0.517  0.00  0.00     0.139 C 
ATOM     52  O   UNK d   0     -17.632 -11.345  -0.108  0.00  0.00    -0.650 OA
BRANCH  51  53
ATOM     53  O   UNK d   0     -17.561  -9.758  -1.716  0.00  0.00    -0.776 OA
ATOM     54  H   UNK d   0     -16.880  -9.470  -2.398  0.00  0.00     0.167 HD
ENDBRANCH  51  53
ENDBRANCH  50  51
ENDBRANCH  49  50
ENDBRANCH  24  49
BRANCH  21  55
ATOM     55  C   UNK d   0     -15.323  -7.762   3.200  0.00  0.00     0.151 C 
BRANCH  55  56
ATOM     56  C   UNK d   0     -14.342  -6.685   3.000  0.00  0.00     0.143 C 
ATOM     57  O   UNK d   0     -14.670  -5.492   2.848  0.00  0.00    -0.650 OA
BRANCH  56  58
ATOM     58  O   UNK d   0     -12.992  -7.032   2.982  0.00  0.00    -0.776 OA
ATOM     59  H   UNK d   0     -12.799  -8.020   2.735  0.00  0.00     0.167 HD
ENDBRANCH  56  58
ENDBRANCH  55  56
ENDBRANCH  21  55
BRANCH  18  60
ATOM     60  C   UNK d   0     -18.828  -7.720   7.266  0.00  0.00     0.151 C 
BRANCH  60  61
ATOM     61  C   UNK d   0     -17.926  -6.854   8.040  0.00  0.00     0.143 C 
ATOM     62  O   UNK d   0     -16.938  -6.249   7.622  0.00  0.00    -0.650 OA
BRANCH  61  63
ATOM     63  O   UNK d   0     -18.251  -6.717   9.411  0.00  0.00    -0.776 OA
ATOM     64  H   UNK d   0     -17.550  -6.476  10.089  0.00  0.00     0.167 HD
ENDBRANCH  61  63
ENDBRANCH  60  61
ENDBRANCH  18  60
BRANCH  14  65
ATOM     65  C   UNK d   0     -21.547  -6.596   8.007  0.00  0.00     0.052 C 
BRANCH  65  66
ATOM     66  C   UNK d   0     -21.587  -5.406   8.899  0.00  0.00     0.115 C 
BRANCH  66  67
ATOM     67  C   UNK d   0     -21.436  -5.574  10.317  0.00  0.00     0.139 C 
ATOM     68  O   UNK d   0     -22.493  -5.588  11.049  0.00  0.00    -0.650 OA
BRANCH  67  69
ATOM     69  O   UNK d   0     -20.252  -5.728  11.037  0.00  0.00    -0.776 OA
ATOM     70  H   UNK d   0     -20.346  -5.711  12.062  0.00  0.00     0.167 HD
ENDBRANCH  67  69
ENDBRANCH  66  67
ENDBRANCH  65  66
ENDBRANCH  14  65
ENDBRANCH   6   7
ENDBRANCH   5   6
ENDBRANCH   2   5
TORSDOF 28
ENDMDL
MODEL 9
REMARK VINA RESULT:      -9.3      3.950      9.890
REMARK  28 active torsions:
REMARK  status: ('A' for Active; 'I' for Inactive)
REMARK    1  A    between atoms: C_2  and  O_3 
REMARK    2  A    between atoms: C_2  and  C_4 
REMARK    3  A    between atoms: C_4  and  C_5 
REMARK    4  A    between atoms: C_5  and  C_6 
REMARK    5  A    between atoms: C_7  and  C_8 
REMARK    6  A    between atoms: C_8  and  C_9 
REMARK    7  A    between atoms: C_9  and  O_11 
REMARK    8  A    between atoms: C_28  and  C_29 
REMARK    9  A    between atoms: C_29  and  C_30 
REMARK   10  A    between atoms: C_30  and  O_32 
REMARK   11  A    between atoms: C_33  and  C_34 
REMARK   12  A    between atoms: C_34  and  C_35 
REMARK   13  A    between atoms: C_35  and  C_36 
REMARK   14  A    between atoms: C_36  and  O_38 
REMARK   15  A    between atoms: C_39  and  C_40 
REMARK   16  A    between atoms: C_40  and  C_41 
REMARK   17  A    between atoms: C_41  and  C_42 
REMARK   18  A    between atoms: C_42  and  O_44 
REMARK   19  A    between atoms: C_45  and  C_46 
REMARK   20  A    between atoms: C_46  and  C_47 
REMARK   21  A    between atoms: C_47  and  O_49 
REMARK   22  A    between atoms: C_50  and  C_51 
REMARK   23  A    between atoms: C_51  and  C_52 
REMARK   24  A    between atoms: C_52  and  O_54 
REMARK   25  A    between atoms: C_55  and  C_56 
REMARK   26  A    between atoms: C_56  and  C_57 
REMARK   27  A    between atoms: C_57  and  C_58 
REMARK   28  A    between atoms: C_58  and  O_60 
ROOT
ATOM      1  O   UNK d   0     -25.043  -7.613  -0.494  0.00  0.00    -0.650 OA
ATOM      2  C   UNK d   0     -25.893  -6.696  -0.440  0.00  0.00     0.139 C 
ENDROOT
BRANCH   2   3
ATOM      3  O   UNK d   0     -27.045  -6.888   0.283  0.00  0.00    -0.776 OA
ATOM      4  H   UNK d   0     -27.934  -6.488  -0.026  0.00  0.00     0.167 HD
ENDBRANCH   2   3
BRANCH   2   5
ATOM      5  C   UNK d   0     -25.653  -5.411  -1.156  0.00  0.00     0.115 C 
BRANCH   5   6
ATOM      6  C   UNK d   0     -24.426  -4.734  -0.608  0.00  0.00     0.052 C 
BRANCH   6   7
ATOM      7  C   UNK d   0     -24.577  -4.343   0.843  0.00  0.00    -0.020 A 
ATOM      8  C   UNK d   0     -25.492  -3.571   1.371  0.00  0.00    -0.011 A 
ATOM      9  C   UNK d   0     -25.227  -3.478   2.797  0.00  0.00     0.067 A 
ATOM     10  C   UNK d   0     -25.826  -2.847   3.899  0.00  0.00     0.062 C 
ATOM     11  N   UNK d   0     -24.129  -4.220   3.050  0.00  0.00    -0.248 NA
ATOM     12  C   UNK d   0     -25.585  -3.101   5.254  0.00  0.00     0.041 A 
ATOM     13  N   UNK d   0     -24.437  -3.310   5.926  0.00  0.00    -0.355 N 
ATOM     14  C   UNK d   0     -26.681  -3.228   6.127  0.00  0.00    -0.022 A 
ATOM     15  C   UNK d   0     -24.777  -3.574   7.202  0.00  0.00     0.042 A 
ATOM     16  H   UNK d   0     -23.407  -3.252   5.512  0.00  0.00     0.166 HD
ATOM     17  C   UNK d   0     -23.970  -3.863   8.321  0.00  0.00     0.062 C 
ATOM     18  C   UNK d   0     -26.175  -3.533   7.366  0.00  0.00    -0.013 A 
ATOM     19  C   UNK d   0     -22.894  -4.707   8.413  0.00  0.00     0.067 A 
ATOM     20  N   UNK d   0     -22.399  -5.184   7.268  0.00  0.00    -0.248 NA
ATOM     21  C   UNK d   0     -22.100  -5.274   9.491  0.00  0.00    -0.011 A 
ATOM     22  C   UNK d   0     -21.340  -6.022   7.518  0.00  0.00     0.066 A 
ATOM     23  C   UNK d   0     -20.705  -6.560   6.409  0.00  0.00     0.062 C 
ATOM     24  C   UNK d   0     -21.195  -6.046   8.960  0.00  0.00    -0.020 A 
ATOM     25  C   UNK d   0     -20.953  -6.283   5.056  0.00  0.00     0.041 A 
ATOM     26  N   UNK d   0     -22.095  -6.090   4.384  0.00  0.00    -0.355 N 
ATOM     27  C   UNK d   0     -19.853  -6.151   4.181  0.00  0.00    -0.022 A 
ATOM     28  C   UNK d   0     -21.759  -5.835   3.110  0.00  0.00     0.042 A 
ATOM     29  H   UNK d   0     -23.130  -6.159   4.800  0.00  0.00     0.166 HD
ATOM     30  C   UNK d   0     -22.551  -5.555   1.985  0.00  0.00     0.062 C 
ATOM     31  C   UNK d   0     -20.354  -5.866   2.948  0.00  0.00    -0.013 A 
ATOM     32  C   UNK d   0     -23.690  -4.768   1.915  0.00  0.00     0.066 A 
BRANCH   8  33
ATOM     33  C   UNK d   0     -26.599  -2.900   0.664  0.00  0.00     0.151 C 
BRANCH  33  34
ATOM     34  C   UNK d   0     -26.233  -1.560   0.172  0.00  0.00     0.143 C 
ATOM     35  O   UNK d   0     -26.946  -0.966  -0.649  0.00  0.00    -0.650 OA
BRANCH  34  36
ATOM     36  O   UNK d   0     -25.082  -0.963   0.633  0.00  0.00    -0.776 OA
ATOM     37  H   UNK d   0     -24.986   0.062   0.662  0.00  0.00     0.167 HD
ENDBRANCH  34  36
ENDBRANCH  33  34
ENDBRANCH   8  33
BRANCH  31  38
ATOM     38  C   UNK d   0     -19.548  -5.625   1.692  0.00  0.00     0.151 C 
BRANCH  38  39
ATOM     39  C   UNK d   0     -19.463  -6.797   0.846  0.00  0.00     0.143 C 
ATOM     40  O   UNK d   0     -19.752  -6.766  -0.363  0.00  0.00    -0.650 OA
BRANCH  39  41
ATOM     41  O   UNK d   0     -19.044  -8.009   1.393  0.00  0.00    -0.776 OA
ATOM     42  H   UNK d   0     -19.276  -8.857   0.867  0.00  0.00     0.167 HD
ENDBRANCH  39  41
ENDBRANCH  38  39
ENDBRANCH  31  38
BRANCH  27  43
ATOM     43  C   UNK d   0     -18.378  -6.284   4.469  0.00  0.00     0.052 C 
BRANCH  43  44
ATOM     44  C   UNK d   0     -17.712  -4.978   4.757  0.00  0.00     0.115 C 
BRANCH  44  45
ATOM     45  C   UNK d   0     -16.476  -5.291   5.521  0.00  0.00     0.139 C 
ATOM     46  O   UNK d   0     -16.455  -6.343   6.206  0.00  0.00    -0.650 OA
BRANCH  45  47
ATOM     47  O   UNK d   0     -15.361  -4.482   5.501  0.00  0.00    -0.776 OA
ATOM     48  H   UNK d   0     -15.088  -3.884   6.298  0.00  0.00     0.167 HD
ENDBRANCH  45  47
ENDBRANCH  44  45
ENDBRANCH  43  44
ENDBRANCH  27  43
BRANCH  24  49
ATOM     49  C   UNK d   0     -20.153  -6.790   9.689  0.00  0.00     0.052 C 
BRANCH  49  50
ATOM     50  C   UNK d   0     -18.861  -6.778   8.913  0.00  0.00     0.115 C 
BRANCH  50  51
ATOM     51  C   UNK d   0     -17.930  -7.872   9.155  0.00  0.00     0.139 C 
ATOM     52  O   UNK d   0     -17.562  -8.659   8.251  0.00  0.00    -0.650 OA
BRANCH  51  53
ATOM     53  O   UNK d   0     -17.420  -8.070  10.429  0.00  0.00    -0.776 OA
ATOM     54  H   UNK d   0     -18.002  -7.840  11.215  0.00  0.00     0.167 HD
ENDBRANCH  51  53
ENDBRANCH  50  51
ENDBRANCH  49  50
ENDBRANCH  24  49
BRANCH  21  55
ATOM     55  C   UNK d   0     -22.326  -4.982  10.937  0.00  0.00     0.151 C 
BRANCH  55  56
ATOM     56  C   UNK d   0     -23.413  -5.796  11.501  0.00  0.00     0.143 C 
ATOM     57  O   UNK d   0     -23.372  -7.041  11.544  0.00  0.00    -0.650 OA
BRANCH  56  58
ATOM     58  O   UNK d   0     -24.530  -5.129  12.004  0.00  0.00    -0.776 OA
ATOM     59  H   UNK d   0     -24.650  -4.159  11.660  0.00  0.00     0.167 HD
ENDBRANCH  56  58
ENDBRANCH  55  56
ENDBRANCH  21  55
BRANCH  18  60
ATOM     60  C   UNK d   0     -27.004  -3.766   8.605  0.00  0.00     0.151 C 
BRANCH  60  61
ATOM     61  C   UNK d   0     -27.124  -5.225   8.743  0.00  0.00     0.143 C 
ATOM     62  O   UNK d   0     -27.724  -5.995   7.991  0.00  0.00    -0.650 OA
BRANCH  61  63
ATOM     63  O   UNK d   0     -26.469  -5.779   9.869  0.00  0.00    -0.776 OA
ATOM     64  H   UNK d   0     -25.467  -5.824   9.916  0.00  0.00     0.167 HD
ENDBRANCH  61  63
ENDBRANCH  60  61
ENDBRANCH  18  60
BRANCH  14  65
ATOM     65  C   UNK d   0     -28.147  -2.990   5.903  0.00  0.00     0.052 C 
BRANCH  65  66
ATOM     66  C   UNK d   0     -28.510  -1.548   5.916  0.00  0.00     0.115 C 
BRANCH  66  67
ATOM     67  C   UNK d   0     -29.661  -1.110   6.656  0.00  0.00     0.139 C 
ATOM     68  O   UNK d   0     -30.028   0.117   6.550  0.00  0.00    -0.650 OA
BRANCH  67  69
ATOM     69  O   UNK d   0     -30.465  -1.866   7.508  0.00  0.00    -0.776 OA
ATOM     70  H   UNK d   0     -31.410  -1.494   7.680  0.00  0.00     0.167 HD
ENDBRANCH  67  69
ENDBRANCH  66  67
ENDBRANCH  65  66
ENDBRANCH  14  65
ENDBRANCH   6   7
ENDBRANCH   5   6
ENDBRANCH   2   5
TORSDOF 28
ENDMDL
MODEL 10
REMARK VINA RESULT:      -9.2      5.129     10.891
REMARK  28 active torsions:
REMARK  status: ('A' for Active; 'I' for Inactive)
REMARK    1  A    between atoms: C_2  and  O_3 
REMARK    2  A    between atoms: C_2  and  C_4 
REMARK    3  A    between atoms: C_4  and  C_5 
REMARK    4  A    between atoms: C_5  and  C_6 
REMARK    5  A    between atoms: C_7  and  C_8 
REMARK    6  A    between atoms: C_8  and  C_9 
REMARK    7  A    between atoms: C_9  and  O_11 
REMARK    8  A    between atoms: C_28  and  C_29 
REMARK    9  A    between atoms: C_29  and  C_30 
REMARK   10  A    between atoms: C_30  and  O_32 
REMARK   11  A    between atoms: C_33  and  C_34 
REMARK   12  A    between atoms: C_34  and  C_35 
REMARK   13  A    between atoms: C_35  and  C_36 
REMARK   14  A    between atoms: C_36  and  O_38 
REMARK   15  A    between atoms: C_39  and  C_40 
REMARK   16  A    between atoms: C_40  and  C_41 
REMARK   17  A    between atoms: C_41  and  C_42 
REMARK   18  A    between atoms: C_42  and  O_44 
REMARK   19  A    between atoms: C_45  and  C_46 
REMARK   20  A    between atoms: C_46  and  C_47 
REMARK   21  A    between atoms: C_47  and  O_49 
REMARK   22  A    between atoms: C_50  and  C_51 
REMARK   23  A    between atoms: C_51  and  C_52 
REMARK   24  A    between atoms: C_52  and  O_54 
REMARK   25  A    between atoms: C_55  and  C_56 
REMARK   26  A    between atoms: C_56  and  C_57 
REMARK   27  A    between atoms: C_57  and  C_58 
REMARK   28  A    between atoms: C_58  and  O_60 
ROOT
ATOM      1  O   UNK d   0     -30.633  -0.279  11.408  0.00  0.00    -0.650 OA
ATOM      2  C   UNK d   0     -30.172  -1.344  10.939  0.00  0.00     0.139 C 
ENDROOT
BRANCH   2   3
ATOM      3  O   UNK d   0     -31.012  -2.210  10.282  0.00  0.00    -0.776 OA
ATOM      4  H   UNK d   0     -31.676  -1.871   9.582  0.00  0.00     0.167 HD
ENDBRANCH   2   3
BRANCH   2   5
ATOM      5  C   UNK d   0     -28.725  -1.666  11.096  0.00  0.00     0.115 C 
BRANCH   5   6
ATOM      6  C   UNK d   0     -27.885  -0.612  10.429  0.00  0.00     0.052 C 
BRANCH   6   7
ATOM      7  C   UNK d   0     -27.754  -0.829   8.940  0.00  0.00    -0.020 A 
ATOM      8  C   UNK d   0     -28.390  -0.205   7.983  0.00  0.00    -0.011 A 
ATOM      9  C   UNK d   0     -27.944  -0.759   6.716  0.00  0.00     0.067 A 
ATOM     10  C   UNK d   0     -28.210  -0.524   5.358  0.00  0.00     0.062 C 
ATOM     11  N   UNK d   0     -27.038  -1.720   6.996  0.00  0.00    -0.248 NA
ATOM     12  C   UNK d   0     -27.469  -0.973   4.259  0.00  0.00     0.041 A 
ATOM     13  N   UNK d   0     -26.906  -2.168   3.999  0.00  0.00    -0.355 N 
ATOM     14  C   UNK d   0     -27.170  -0.068   3.225  0.00  0.00    -0.022 A 
ATOM     15  C   UNK d   0     -26.249  -2.042   2.830  0.00  0.00     0.042 A 
ATOM     16  H   UNK d   0     -26.986  -3.088   4.619  0.00  0.00     0.166 HD
ATOM     17  C   UNK d   0     -25.494  -2.982   2.101  0.00  0.00     0.062 C 
ATOM     18  C   UNK d   0     -26.392  -0.739   2.314  0.00  0.00    -0.013 A 
ATOM     19  C   UNK d   0     -24.553  -3.871   2.554  0.00  0.00     0.067 A 
ATOM     20  N   UNK d   0     -24.457  -4.027   3.877  0.00  0.00    -0.248 NA
ATOM     21  C   UNK d   0     -23.555  -4.736   1.948  0.00  0.00    -0.011 A 
ATOM     22  C   UNK d   0     -23.468  -4.931   4.180  0.00  0.00     0.066 A 
ATOM     23  C   UNK d   0     -23.286  -5.218   5.524  0.00  0.00     0.062 C 
ATOM     24  C   UNK d   0     -22.921  -5.350   2.904  0.00  0.00    -0.020 A 
ATOM     25  C   UNK d   0     -24.049  -4.766   6.612  0.00  0.00     0.041 A 
ATOM     26  N   UNK d   0     -24.597  -3.574   6.878  0.00  0.00    -0.355 N 
ATOM     27  C   UNK d   0     -24.353  -5.676   7.648  0.00  0.00    -0.022 A 
ATOM     28  C   UNK d   0     -25.244  -3.695   8.047  0.00  0.00     0.042 A 
ATOM     29  H   UNK d   0     -24.506  -2.648   6.259  0.00  0.00     0.166 HD
ATOM     30  C   UNK d   0     -25.991  -2.766   8.788  0.00  0.00     0.062 C 
ATOM     31  C   UNK d   0     -25.110  -5.007   8.560  0.00  0.00    -0.013 A 
ATOM     32  C   UNK d   0     -26.879  -1.811   8.317  0.00  0.00     0.066 A 
BRANCH   8  33
ATOM     33  C   UNK d   0     -29.390   0.868   8.139  0.00  0.00     0.151 C 
BRANCH  33  34
ATOM     34  C   UNK d   0     -30.731   0.471   7.671  0.00  0.00     0.143 C 
ATOM     35  O   UNK d   0     -31.535   1.316   7.253  0.00  0.00    -0.650 OA
BRANCH  34  36
ATOM     36  O   UNK d   0     -31.091  -0.856   7.701  0.00  0.00    -0.776 OA
ATOM     37  H   UNK d   0     -30.481  -1.585   7.304  0.00  0.00     0.167 HD
ENDBRANCH  34  36
ENDBRANCH  33  34
ENDBRANCH   8  33
BRANCH  31  38
ATOM     38  C   UNK d   0     -25.683  -5.580   9.835  0.00  0.00     0.151 C 
BRANCH  38  39
ATOM     39  C   UNK d   0     -26.986  -6.181   9.644  0.00  0.00     0.143 C 
ATOM     40  O   UNK d   0     -27.859  -5.663   8.927  0.00  0.00    -0.650 OA
BRANCH  39  41
ATOM     41  O   UNK d   0     -27.285  -7.385  10.281  0.00  0.00    -0.776 OA
ATOM     42  H   UNK d   0     -26.515  -8.050  10.397  0.00  0.00     0.167 HD
ENDBRANCH  39  41
ENDBRANCH  38  39
ENDBRANCH  31  38
BRANCH  27  43
ATOM     43  C   UNK d   0     -23.958  -7.124   7.798  0.00  0.00     0.052 C 
BRANCH  43  44
ATOM     44  C   UNK d   0     -24.779  -8.051   6.962  0.00  0.00     0.115 C 
BRANCH  44  45
ATOM     45  C   UNK d   0     -25.621  -8.836   7.901  0.00  0.00     0.139 C 
ATOM     46  O   UNK d   0     -26.802  -9.097   7.561  0.00  0.00    -0.650 OA
BRANCH  45  47
ATOM     47  O   UNK d   0     -25.159  -9.291   9.117  0.00  0.00    -0.776 OA
ATOM     48  H   UNK d   0     -24.168  -9.522   9.289  0.00  0.00     0.167 HD
ENDBRANCH  45  47
ENDBRANCH  44  45
ENDBRANCH  43  44
ENDBRANCH  27  43
BRANCH  24  49
ATOM     49  C   UNK d   0     -21.853  -6.351   2.735  0.00  0.00     0.052 C 
BRANCH  49  50
ATOM     50  C   UNK d   0     -20.702  -6.050   3.660  0.00  0.00     0.115 C 
BRANCH  50  51
ATOM     51  C   UNK d   0     -19.837  -4.933   3.305  0.00  0.00     0.139 C 
ATOM     52  O   UNK d   0     -20.065  -3.757   3.676  0.00  0.00    -0.650 OA
BRANCH  51  53
ATOM     53  O   UNK d   0     -18.714  -5.156   2.523  0.00  0.00    -0.776 OA
ATOM     54  H   UNK d   0     -18.072  -5.875   2.808  0.00  0.00     0.167 HD
ENDBRANCH  51  53
ENDBRANCH  50  51
ENDBRANCH  49  50
ENDBRANCH  24  49
BRANCH  21  55
ATOM     55  C   UNK d   0     -23.342  -4.861   0.475  0.00  0.00     0.151 C 
BRANCH  55  56
ATOM     56  C   UNK d   0     -24.433  -5.602  -0.178  0.00  0.00     0.143 C 
ATOM     57  O   UNK d   0     -25.375  -5.036  -0.767  0.00  0.00    -0.650 OA
BRANCH  56  58
ATOM     58  O   UNK d   0     -24.394  -6.994  -0.126  0.00  0.00    -0.776 OA
ATOM     59  H   UNK d   0     -25.129  -7.430   0.459  0.00  0.00     0.167 HD
ENDBRANCH  56  58
ENDBRANCH  55  56
ENDBRANCH  21  55
BRANCH  18  60
ATOM     60  C   UNK d   0     -25.835  -0.142   1.046  0.00  0.00     0.151 C 
BRANCH  60  61
ATOM     61  C   UNK d   0     -26.848  -0.383   0.007  0.00  0.00     0.143 C 
ATOM     62  O   UNK d   0     -27.009  -1.414  -0.647  0.00  0.00    -0.650 OA
BRANCH  61  63
ATOM     63  O   UNK d   0     -27.719   0.703  -0.248  0.00  0.00    -0.776 OA
ATOM     64  H   UNK d   0     -28.231   1.143   0.495  0.00  0.00     0.167 HD
ENDBRANCH  61  63
ENDBRANCH  60  61
ENDBRANCH  18  60
BRANCH  14  65
ATOM     65  C   UNK d   0     -27.639   1.339   2.985  0.00  0.00     0.052 C 
BRANCH  65  66
ATOM     66  C   UNK d   0     -26.532   2.332   2.998  0.00  0.00     0.115 C 
BRANCH  66  67
ATOM     67  C   UNK d   0     -26.420   3.287   1.932  0.00  0.00     0.139 C 
ATOM     68  O   UNK d   0     -27.393   3.393   1.098  0.00  0.00    -0.650 OA
BRANCH  67  69
ATOM     69  O   UNK d   0     -25.356   4.148   1.667  0.00  0.00    -0.776 OA
ATOM     70  H   UNK d   0     -24.465   3.916   2.128  0.00  0.00     0.167 HD
ENDBRANCH  67  69
ENDBRANCH  66  67
ENDBRANCH  65  66
ENDBRANCH  14  65
ENDBRANCH   6   7
ENDBRANCH   5   6
ENDBRANCH   2   5
TORSDOF 28
ENDMDL
MODEL 11
REMARK VINA RESULT:      -9.2      2.470      8.694
REMARK  28 active torsions:
REMARK  status: ('A' for Active; 'I' for Inactive)
REMARK    1  A    between atoms: C_2  and  O_3 
REMARK    2  A    between atoms: C_2  and  C_4 
REMARK    3  A    between atoms: C_4  and  C_5 
REMARK    4  A    between atoms: C_5  and  C_6 
REMARK    5  A    between atoms: C_7  and  C_8 
REMARK    6  A    between atoms: C_8  and  C_9 
REMARK    7  A    between atoms: C_9  and  O_11 
REMARK    8  A    between atoms: C_28  and  C_29 
REMARK    9  A    between atoms: C_29  and  C_30 
REMARK   10  A    between atoms: C_30  and  O_32 
REMARK   11  A    between atoms: C_33  and  C_34 
REMARK   12  A    between atoms: C_34  and  C_35 
REMARK   13  A    between atoms: C_35  and  C_36 
REMARK   14  A    between atoms: C_36  and  O_38 
REMARK   15  A    between atoms: C_39  and  C_40 
REMARK   16  A    between atoms: C_40  and  C_41 
REMARK   17  A    between atoms: C_41  and  C_42 
REMARK   18  A    between atoms: C_42  and  O_44 
REMARK   19  A    between atoms: C_45  and  C_46 
REMARK   20  A    between atoms: C_46  and  C_47 
REMARK   21  A    between atoms: C_47  and  O_49 
REMARK   22  A    between atoms: C_50  and  C_51 
REMARK   23  A    between atoms: C_51  and  C_52 
REMARK   24  A    between atoms: C_52  and  O_54 
REMARK   25  A    between atoms: C_55  and  C_56 
REMARK   26  A    between atoms: C_56  and  C_57 
REMARK   27  A    between atoms: C_57  and  C_58 
REMARK   28  A    between atoms: C_58  and  O_60 
ROOT
ATOM      1  O   UNK d   0     -22.129  -4.986  -5.747  0.00  0.00    -0.650 OA
ATOM      2  C   UNK d   0     -21.271  -4.303  -5.145  0.00  0.00     0.139 C 
ENDROOT
BRANCH   2   3
ATOM      3  O   UNK d   0     -20.575  -3.338  -5.832  0.00  0.00    -0.776 OA
ATOM      4  H   UNK d   0     -20.568  -3.319  -6.853  0.00  0.00     0.167 HD
ENDBRANCH   2   3
BRANCH   2   5
ATOM      5  C   UNK d   0     -21.009  -4.539  -3.696  0.00  0.00     0.115 C 
BRANCH   5   6
ATOM      6  C   UNK d   0     -20.369  -5.886  -3.499  0.00  0.00     0.052 C 
BRANCH   6   7
ATOM      7  C   UNK d   0     -20.046  -6.169  -2.051  0.00  0.00    -0.020 A 
ATOM      8  C   UNK d   0     -18.933  -6.651  -1.561  0.00  0.00    -0.011 A 
ATOM      9  C   UNK d   0     -19.091  -6.759  -0.120  0.00  0.00     0.067 A 
ATOM     10  C   UNK d   0     -18.292  -7.168   0.959  0.00  0.00     0.062 C 
ATOM     11  N   UNK d   0     -20.334  -6.326   0.180  0.00  0.00    -0.248 NA
ATOM     12  C   UNK d   0     -18.523  -6.937   2.320  0.00  0.00     0.041 A 
ATOM     13  N   UNK d   0     -19.649  -7.016   3.053  0.00  0.00    -0.355 N 
ATOM     14  C   UNK d   0     -17.458  -6.492   3.125  0.00  0.00    -0.022 A 
ATOM     15  C   UNK d   0     -19.329  -6.624   4.301  0.00  0.00     0.042 A 
ATOM     16  H   UNK d   0     -20.646  -7.360   2.701  0.00  0.00     0.166 HD
ATOM     17  C   UNK d   0     -20.126  -6.519   5.458  0.00  0.00     0.062 C 
ATOM     18  C   UNK d   0     -17.964  -6.287   4.384  0.00  0.00    -0.013 A 
ATOM     19  C   UNK d   0     -21.383  -5.987   5.595  0.00  0.00     0.067 A 
ATOM     20  N   UNK d   0     -22.044  -5.701   4.470  0.00  0.00    -0.248 NA
ATOM     21  C   UNK d   0     -22.243  -5.612   6.704  0.00  0.00    -0.011 A 
ATOM     22  C   UNK d   0     -23.273  -5.165   4.763  0.00  0.00     0.066 A 
ATOM     23  C   UNK d   0     -24.085  -4.855   3.681  0.00  0.00     0.062 C 
ATOM     24  C   UNK d   0     -23.347  -5.127   6.211  0.00  0.00    -0.020 A 
ATOM     25  C   UNK d   0     -23.839  -5.106   2.322  0.00  0.00     0.041 A 
ATOM     26  N   UNK d   0     -22.723  -5.014   1.590  0.00  0.00    -0.355 N 
ATOM     27  C   UNK d   0     -24.907  -5.558   1.516  0.00  0.00    -0.022 A 
ATOM     28  C   UNK d   0     -23.042  -5.396   0.343  0.00  0.00     0.042 A 
ATOM     29  H   UNK d   0     -21.724  -4.658   1.943  0.00  0.00     0.166 HD
ATOM     30  C   UNK d   0     -22.262  -5.496  -0.819  0.00  0.00     0.062 C 
ATOM     31  C   UNK d   0     -24.411  -5.744   0.263  0.00  0.00    -0.013 A 
ATOM     32  C   UNK d   0     -20.960  -5.956  -0.938  0.00  0.00     0.066 A 
BRANCH   8  33
ATOM     33  C   UNK d   0     -17.725  -7.030  -2.316  0.00  0.00     0.151 C 
BRANCH  33  34
ATOM     34  C   UNK d   0     -17.709  -8.456  -2.689  0.00  0.00     0.143 C 
ATOM     35  O   UNK d   0     -17.934  -8.811  -3.855  0.00  0.00    -0.650 OA
BRANCH  34  36
ATOM     36  O   UNK d   0     -17.442  -9.403  -1.728  0.00  0.00    -0.776 OA
ATOM     37  H   UNK d   0     -17.922  -9.391  -0.818  0.00  0.00     0.167 HD
ENDBRANCH  34  36
ENDBRANCH  33  34
ENDBRANCH   8  33
BRANCH  31  38
ATOM     38  C   UNK d   0     -25.185  -6.236  -0.938  0.00  0.00     0.151 C 
BRANCH  38  39
ATOM     39  C   UNK d   0     -25.764  -5.159  -1.713  0.00  0.00     0.143 C 
ATOM     40  O   UNK d   0     -26.547  -5.364  -2.657  0.00  0.00    -0.650 OA
BRANCH  39  41
ATOM     41  O   UNK d   0     -25.443  -3.839  -1.399  0.00  0.00    -0.776 OA
ATOM     42  H   UNK d   0     -25.733  -3.500  -0.476  0.00  0.00     0.167 HD
ENDBRANCH  39  41
ENDBRANCH  38  39
ENDBRANCH  31  38
BRANCH  27  43
ATOM     43  C   UNK d   0     -26.347  -5.810   1.886  0.00  0.00     0.052 C 
BRANCH  43  44
ATOM     44  C   UNK d   0     -27.276  -4.741   1.409  0.00  0.00     0.115 C 
BRANCH  44  45
ATOM     45  C   UNK d   0     -26.834  -3.476   2.052  0.00  0.00     0.139 C 
ATOM     46  O   UNK d   0     -26.979  -3.362   3.295  0.00  0.00    -0.650 OA
BRANCH  45  47
ATOM     47  O   UNK d   0     -26.270  -2.436   1.346  0.00  0.00    -0.776 OA
ATOM     48  H   UNK d   0     -25.371  -2.522   0.844  0.00  0.00     0.167 HD
ENDBRANCH  45  47
ENDBRANCH  44  45
ENDBRANCH  43  44
ENDBRANCH  27  43
BRANCH  24  49
ATOM     49  C   UNK d   0     -24.511  -4.660   6.982  0.00  0.00     0.052 C 
BRANCH  49  50
ATOM     50  C   UNK d   0     -25.686  -5.580   6.766  0.00  0.00     0.115 C 
BRANCH  50  51
ATOM     51  C   UNK d   0     -26.600  -5.765   7.886  0.00  0.00     0.139 C 
ATOM     52  O   UNK d   0     -27.771  -5.318   7.884  0.00  0.00    -0.650 OA
BRANCH  51  53
ATOM     53  O   UNK d   0     -26.176  -6.457   9.010  0.00  0.00    -0.776 OA
ATOM     54  H   UNK d   0     -25.730  -5.940   9.747  0.00  0.00     0.167 HD
ENDBRANCH  51  53
ENDBRANCH  50  51
ENDBRANCH  49  50
ENDBRANCH  24  49
BRANCH  21  55
ATOM     55  C   UNK d   0     -21.876  -5.780   8.141  0.00  0.00     0.151 C 
BRANCH  55  56
ATOM     56  C   UNK d   0     -22.890  -6.544   8.884  0.00  0.00     0.143 C 
ATOM     57  O   UNK d   0     -23.275  -6.222  10.025  0.00  0.00    -0.650 OA
BRANCH  56  58
ATOM     58  O   UNK d   0     -23.432  -7.671   8.270  0.00  0.00    -0.776 OA
ATOM     59  H   UNK d   0     -24.420  -7.574   7.974  0.00  0.00     0.167 HD
ENDBRANCH  56  58
ENDBRANCH  55  56
ENDBRANCH  21  55
BRANCH  18  60
ATOM     60  C   UNK d   0     -17.165  -5.798   5.567  0.00  0.00     0.151 C 
BRANCH  60  61
ATOM     61  C   UNK d   0     -16.907  -4.371   5.318  0.00  0.00     0.143 C 
ATOM     62  O   UNK d   0     -17.649  -3.572   4.747  0.00  0.00    -0.650 OA
BRANCH  61  63
ATOM     63  O   UNK d   0     -15.664  -3.892   5.796  0.00  0.00    -0.776 OA
ATOM     64  H   UNK d   0     -14.987  -4.516   6.198  0.00  0.00     0.167 HD
ENDBRANCH  61  63
ENDBRANCH  60  61
ENDBRANCH  18  60
BRANCH  14  65
ATOM     65  C   UNK d   0     -15.995  -6.341   2.821  0.00  0.00     0.052 C 
BRANCH  65  66
ATOM     66  C   UNK d   0     -15.376  -7.592   2.306  0.00  0.00     0.115 C 
BRANCH  66  67
ATOM     67  C   UNK d   0     -14.830  -8.548   3.228  0.00  0.00     0.139 C 
ATOM     68  O   UNK d   0     -14.775  -8.236   4.475  0.00  0.00    -0.650 OA
BRANCH  67  69
ATOM     69  O   UNK d   0     -14.331  -9.819   2.945  0.00  0.00    -0.776 OA
ATOM     70  H   UNK d   0     -13.699  -9.881   2.134  0.00  0.00     0.167 HD
ENDBRANCH  67  69
ENDBRANCH  66  67
ENDBRANCH  65  66
ENDBRANCH  14  65
ENDBRANCH   6   7
ENDBRANCH   5   6
ENDBRANCH   2   5
TORSDOF 28
ENDMDL
MODEL 12
REMARK VINA RESULT:      -9.2      5.040     11.643
REMARK  28 active torsions:
REMARK  status: ('A' for Active; 'I' for Inactive)
REMARK    1  A    between atoms: C_2  and  O_3 
REMARK    2  A    between atoms: C_2  and  C_4 
REMARK    3  A    between atoms: C_4  and  C_5 
REMARK    4  A    between atoms: C_5  and  C_6 
REMARK    5  A    between atoms: C_7  and  C_8 
REMARK    6  A    between atoms: C_8  and  C_9 
REMARK    7  A    between atoms: C_9  and  O_11 
REMARK    8  A    between atoms: C_28  and  C_29 
REMARK    9  A    between atoms: C_29  and  C_30 
REMARK   10  A    between atoms: C_30  and  O_32 
REMARK   11  A    between atoms: C_33  and  C_34 
REMARK   12  A    between atoms: C_34  and  C_35 
REMARK   13  A    between atoms: C_35  and  C_36 
REMARK   14  A    between atoms: C_36  and  O_38 
REMARK   15  A    between atoms: C_39  and  C_40 
REMARK   16  A    between atoms: C_40  and  C_41 
REMARK   17  A    between atoms: C_41  and  C_42 
REMARK   18  A    between atoms: C_42  and  O_44 
REMARK   19  A    between atoms: C_45  and  C_46 
REMARK   20  A    between atoms: C_46  and  C_47 
REMARK   21  A    between atoms: C_47  and  O_49 
REMARK   22  A    between atoms: C_50  and  C_51 
REMARK   23  A    between atoms: C_51  and  C_52 
REMARK   24  A    between atoms: C_52  and  O_54 
REMARK   25  A    between atoms: C_55  and  C_56 
REMARK   26  A    between atoms: C_56  and  C_57 
REMARK   27  A    between atoms: C_57  and  C_58 
REMARK   28  A    between atoms: C_58  and  O_60 
ROOT
ATOM      1  O   UNK d   0     -27.625   3.899   1.503  0.00  0.00    -0.650 OA
ATOM      2  C   UNK d   0     -26.445   3.558   1.745  0.00  0.00     0.139 C 
ENDROOT
BRANCH   2   3
ATOM      3  O   UNK d   0     -25.416   4.399   1.396  0.00  0.00    -0.776 OA
ATOM      4  H   UNK d   0     -25.499   5.411   1.513  0.00  0.00     0.167 HD
ENDBRANCH   2   3
BRANCH   2   5
ATOM      5  C   UNK d   0     -26.165   2.251   2.404  0.00  0.00     0.115 C 
BRANCH   5   6
ATOM      6  C   UNK d   0     -26.976   1.161   1.759  0.00  0.00     0.052 C 
BRANCH   6   7
ATOM      7  C   UNK d   0     -26.515  -0.221   2.158  0.00  0.00    -0.020 A 
ATOM      8  C   UNK d   0     -25.883  -1.096   1.419  0.00  0.00    -0.011 A 
ATOM      9  C   UNK d   0     -25.657  -2.282   2.228  0.00  0.00     0.067 A 
ATOM     10  C   UNK d   0     -25.037  -3.528   2.048  0.00  0.00     0.062 C 
ATOM     11  N   UNK d   0     -26.190  -2.043   3.445  0.00  0.00    -0.248 NA
ATOM     12  C   UNK d   0     -24.672  -4.444   3.040  0.00  0.00     0.041 A 
ATOM     13  N   UNK d   0     -25.323  -4.866   4.140  0.00  0.00    -0.355 N 
ATOM     14  C   UNK d   0     -23.397  -5.035   2.984  0.00  0.00    -0.022 A 
ATOM     15  C   UNK d   0     -24.491  -5.703   4.788  0.00  0.00     0.042 A 
ATOM     16  H   UNK d   0     -26.358  -4.592   4.443  0.00  0.00     0.166 HD
ATOM     17  C   UNK d   0     -24.669  -6.422   5.987  0.00  0.00     0.062 C 
ATOM     18  C   UNK d   0     -23.273  -5.834   4.093  0.00  0.00    -0.013 A 
ATOM     19  C   UNK d   0     -25.196  -5.993   7.179  0.00  0.00     0.067 A 
ATOM     20  N   UNK d   0     -25.807  -4.806   7.178  0.00  0.00    -0.248 NA
ATOM     21  C   UNK d   0     -25.262  -6.508   8.537  0.00  0.00    -0.011 A 
ATOM     22  C   UNK d   0     -26.267  -4.506   8.437  0.00  0.00     0.066 A 
ATOM     23  C   UNK d   0     -26.959  -3.312   8.572  0.00  0.00     0.062 C 
ATOM     24  C   UNK d   0     -25.886  -5.631   9.269  0.00  0.00    -0.020 A 
ATOM     25  C   UNK d   0     -27.327  -2.411   7.561  0.00  0.00     0.041 A 
ATOM     26  N   UNK d   0     -26.674  -1.981   6.475  0.00  0.00    -0.355 N 
ATOM     27  C   UNK d   0     -28.609  -1.822   7.615  0.00  0.00    -0.022 A 
ATOM     28  C   UNK d   0     -27.498  -1.139   5.831  0.00  0.00     0.042 A 
ATOM     29  H   UNK d   0     -25.630  -2.248   6.178  0.00  0.00     0.166 HD
ATOM     30  C   UNK d   0     -27.330  -0.410   4.643  0.00  0.00     0.062 C 
ATOM     31  C   UNK d   0     -28.726  -1.016   6.525  0.00  0.00    -0.013 A 
ATOM     32  C   UNK d   0     -26.721  -0.820   3.468  0.00  0.00     0.066 A 
BRANCH   8  33
ATOM     33  C   UNK d   0     -25.469  -0.932   0.013  0.00  0.00     0.151 C 
BRANCH  33  34
ATOM     34  C   UNK d   0     -24.188  -1.597  -0.286  0.00  0.00     0.143 C 
ATOM     35  O   UNK d   0     -23.129  -1.192   0.215  0.00  0.00    -0.650 OA
BRANCH  34  36
ATOM     36  O   UNK d   0     -24.171  -2.681  -1.133  0.00  0.00    -0.776 OA
ATOM     37  H   UNK d   0     -25.013  -2.969  -1.649  0.00  0.00     0.167 HD
ENDBRANCH  34  36
ENDBRANCH  33  34
ENDBRANCH   8  33
BRANCH  31  38
ATOM     38  C   UNK d   0     -29.934  -0.189   6.153  0.00  0.00     0.151 C 
BRANCH  38  39
ATOM     39  C   UNK d   0     -30.002   1.063   6.878  0.00  0.00     0.143 C 
ATOM     40  O   UNK d   0     -31.013   1.410   7.513  0.00  0.00    -0.650 OA
BRANCH  39  41
ATOM     41  O   UNK d   0     -28.901   1.919   6.872  0.00  0.00    -0.776 OA
ATOM     42  H   UNK d   0     -28.593   2.281   7.780  0.00  0.00     0.167 HD
ENDBRANCH  39  41
ENDBRANCH  38  39
ENDBRANCH  31  38
BRANCH  27  43
ATOM     43  C   UNK d   0     -29.699  -1.992   8.644  0.00  0.00     0.052 C 
BRANCH  43  44
ATOM     44  C   UNK d   0     -29.540  -1.094   9.827  0.00  0.00     0.115 C 
BRANCH  44  45
ATOM     45  C   UNK d   0     -30.565  -1.513  10.818  0.00  0.00     0.139 C 
ATOM     46  O   UNK d   0     -30.564  -0.954  11.943  0.00  0.00    -0.650 OA
BRANCH  45  47
ATOM     47  O   UNK d   0     -31.513  -2.477  10.552  0.00  0.00    -0.776 OA
ATOM     48  H   UNK d   0     -31.365  -3.232   9.862  0.00  0.00     0.167 HD
ENDBRANCH  45  47
ENDBRANCH  44  45
ENDBRANCH  43  44
ENDBRANCH  27  43
BRANCH  24  49
ATOM     49  C   UNK d   0     -26.208  -5.766  10.700  0.00  0.00     0.052 C 
BRANCH  49  50
ATOM     50  C   UNK d   0     -24.965  -5.597  11.535  0.00  0.00     0.115 C 
BRANCH  50  51
ATOM     51  C   UNK d   0     -24.347  -4.278  11.550  0.00  0.00     0.139 C 
ATOM     52  O   UNK d   0     -24.740  -3.355  12.302  0.00  0.00    -0.650 OA
BRANCH  51  53
ATOM     53  O   UNK d   0     -23.282  -4.009  10.704  0.00  0.00    -0.776 OA
ATOM     54  H   UNK d   0     -23.421  -4.119   9.714  0.00  0.00     0.167 HD
ENDBRANCH  51  53
ENDBRANCH  50  51
ENDBRANCH  49  50
ENDBRANCH  24  49
BRANCH  21  55
ATOM     55  C   UNK d   0     -24.698  -7.824   8.960  0.00  0.00     0.151 C 
BRANCH  55  56
ATOM     56  C   UNK d   0     -25.728  -8.872   9.016  0.00  0.00     0.143 C 
ATOM     57  O   UNK d   0     -26.715  -8.891   8.255  0.00  0.00    -0.650 OA
BRANCH  56  58
ATOM     58  O   UNK d   0     -25.577  -9.880   9.968  0.00  0.00    -0.776 OA
ATOM     59  H   UNK d   0     -24.943  -9.647  10.753  0.00  0.00     0.167 HD
ENDBRANCH  56  58
ENDBRANCH  55  56
ENDBRANCH  21  55
BRANCH  18  60
ATOM     60  C   UNK d   0     -22.054  -6.653   4.438  0.00  0.00     0.151 C 
BRANCH  60  61
ATOM     61  C   UNK d   0     -21.213  -5.790   5.282  0.00  0.00     0.143 C 
ATOM     62  O   UNK d   0     -21.273  -5.663   6.505  0.00  0.00    -0.650 OA
BRANCH  61  63
ATOM     63  O   UNK d   0     -20.237  -5.035   4.588  0.00  0.00    -0.776 OA
ATOM     64  H   UNK d   0     -20.040  -4.084   4.843  0.00  0.00     0.167 HD
ENDBRANCH  61  63
ENDBRANCH  60  61
ENDBRANCH  18  60
BRANCH  14  65
ATOM     65  C   UNK d   0     -22.335  -4.980   1.922  0.00  0.00     0.052 C 
BRANCH  65  66
ATOM     66  C   UNK d   0     -22.634  -5.853   0.755  0.00  0.00     0.115 C 
BRANCH  66  67
ATOM     67  C   UNK d   0     -21.959  -5.629  -0.493  0.00  0.00     0.139 C 
ATOM     68  O   UNK d   0     -21.701  -4.419  -0.843  0.00  0.00    -0.650 OA
BRANCH  67  69
ATOM     69  O   UNK d   0     -21.528  -6.584  -1.413  0.00  0.00    -0.776 OA
ATOM     70  H   UNK d   0     -21.874  -7.542  -1.259  0.00  0.00     0.167 HD
ENDBRANCH  67  69
ENDBRANCH  66  67
ENDBRANCH  65  66
ENDBRANCH  14  65
ENDBRANCH   6   7
ENDBRANCH   5   6
ENDBRANCH   2   5
TORSDOF 28
ENDMDL
MODEL 13
REMARK VINA RESULT:      -9.2      1.729      3.653
REMARK  28 active torsions:
REMARK  status: ('A' for Active; 'I' for Inactive)
REMARK    1  A    between atoms: C_2  and  O_3 
REMARK    2  A    between atoms: C_2  and  C_4 
REMARK    3  A    between atoms: C_4  and  C_5 
REMARK    4  A    between atoms: C_5  and  C_6 
REMARK    5  A    between atoms: C_7  and  C_8 
REMARK    6  A    between atoms: C_8  and  C_9 
REMARK    7  A    between atoms: C_9  and  O_11 
REMARK    8  A    between atoms: C_28  and  C_29 
REMARK    9  A    between atoms: C_29  and  C_30 
REMARK   10  A    between atoms: C_30  and  O_32 
REMARK   11  A    between atoms: C_33  and  C_34 
REMARK   12  A    between atoms: C_34  and  C_35 
REMARK   13  A    between atoms: C_35  and  C_36 
REMARK   14  A    between atoms: C_36  and  O_38 
REMARK   15  A    between atoms: C_39  and  C_40 
REMARK   16  A    between atoms: C_40  and  C_41 
REMARK   17  A    between atoms: C_41  and  C_42 
REMARK   18  A    between atoms: C_42  and  O_44 
REMARK   19  A    between atoms: C_45  and  C_46 
REMARK   20  A    between atoms: C_46  and  C_47 
REMARK   21  A    between atoms: C_47  and  O_49 
REMARK   22  A    between atoms: C_50  and  C_51 
REMARK   23  A    between atoms: C_51  and  C_52 
REMARK   24  A    between atoms: C_52  and  O_54 
REMARK   25  A    between atoms: C_55  and  C_56 
REMARK   26  A    between atoms: C_56  and  C_57 
REMARK   27  A    between atoms: C_57  and  C_58 
REMARK   28  A    between atoms: C_58  and  O_60 
ROOT
ATOM      1  O   UNK d   0     -25.474  -4.388  -1.452  0.00  0.00    -0.650 OA
ATOM      2  C   UNK d   0     -25.461  -3.505  -0.566  0.00  0.00     0.139 C 
ENDROOT
BRANCH   2   3
ATOM      3  O   UNK d   0     -24.781  -2.333  -0.794  0.00  0.00    -0.776 OA
ATOM      4  H   UNK d   0     -25.276  -1.441  -0.864  0.00  0.00     0.167 HD
ENDBRANCH   2   3
BRANCH   2   5
ATOM      5  C   UNK d   0     -26.175  -3.727   0.723  0.00  0.00     0.115 C 
BRANCH   5   6
ATOM      6  C   UNK d   0     -25.914  -5.120   1.227  0.00  0.00     0.052 C 
BRANCH   6   7
ATOM      7  C   UNK d   0     -24.663  -5.208   2.069  0.00  0.00    -0.020 A 
ATOM      8  C   UNK d   0     -24.555  -5.024   3.360  0.00  0.00    -0.011 A 
ATOM      9  C   UNK d   0     -23.159  -5.204   3.720  0.00  0.00     0.067 A 
ATOM     10  C   UNK d   0     -22.406  -5.168   4.904  0.00  0.00     0.062 C 
ATOM     11  N   UNK d   0     -22.486  -5.491   2.586  0.00  0.00    -0.248 NA
ATOM     12  C   UNK d   0     -21.105  -5.645   5.095  0.00  0.00     0.041 A 
ATOM     13  N   UNK d   0     -20.003  -5.550   4.326  0.00  0.00    -0.355 N 
ATOM     14  C   UNK d   0     -20.823  -6.415   6.239  0.00  0.00    -0.022 A 
ATOM     15  C   UNK d   0     -19.033  -6.246   4.949  0.00  0.00     0.042 A 
ATOM     16  H   UNK d   0     -19.908  -4.985   3.372  0.00  0.00     0.166 HD
ATOM     17  C   UNK d   0     -17.691  -6.469   4.582  0.00  0.00     0.062 C 
ATOM     18  C   UNK d   0     -19.510  -6.803   6.151  0.00  0.00    -0.013 A 
ATOM     19  C   UNK d   0     -17.178  -6.813   3.357  0.00  0.00     0.067 A 
ATOM     20  N   UNK d   0     -18.007  -6.744   2.313  0.00  0.00    -0.248 NA
ATOM     21  C   UNK d   0     -15.895  -7.278   2.855  0.00  0.00    -0.011 A 
ATOM     22  C   UNK d   0     -17.360  -7.130   1.164  0.00  0.00     0.066 A 
ATOM     23  C   UNK d   0     -18.097  -7.069  -0.009  0.00  0.00     0.062 C 
ATOM     24  C   UNK d   0     -16.009  -7.465   1.572  0.00  0.00    -0.020 A 
ATOM     25  C   UNK d   0     -19.399  -6.574  -0.182  0.00  0.00     0.041 A 
ATOM     26  N   UNK d   0     -20.498  -6.681   0.575  0.00  0.00    -0.355 N 
ATOM     27  C   UNK d   0     -19.679  -5.798  -1.328  0.00  0.00    -0.022 A 
ATOM     28  C   UNK d   0     -21.469  -5.995  -0.048  0.00  0.00     0.042 A 
ATOM     29  H   UNK d   0     -20.594  -7.257   1.528  0.00  0.00     0.166 HD
ATOM     30  C   UNK d   0     -22.810  -5.772   0.301  0.00  0.00     0.062 C 
ATOM     31  C   UNK d   0     -20.986  -5.427  -1.251  0.00  0.00    -0.013 A 
ATOM     32  C   UNK d   0     -23.335  -5.509   1.556  0.00  0.00     0.066 A 
BRANCH   8  33
ATOM     33  C   UNK d   0     -25.641  -4.687   4.299  0.00  0.00     0.151 C 
BRANCH  33  34
ATOM     34  C   UNK d   0     -25.526  -3.319   4.837  0.00  0.00     0.143 C 
ATOM     35  O   UNK d   0     -25.454  -3.119   6.058  0.00  0.00    -0.650 OA
BRANCH  34  36
ATOM     36  O   UNK d   0     -25.501  -2.252   3.969  0.00  0.00    -0.776 OA
ATOM     37  H   UNK d   0     -25.185  -1.322   4.275  0.00  0.00     0.167 HD
ENDBRANCH  34  36
ENDBRANCH  33  34
ENDBRANCH   8  33
BRANCH  31  38
ATOM     38  C   UNK d   0     -21.732  -4.574  -2.250  0.00  0.00     0.151 C 
BRANCH  38  39
ATOM     39  C   UNK d   0     -22.302  -5.346  -3.334  0.00  0.00     0.143 C 
ATOM     40  O   UNK d   0     -21.782  -5.393  -4.462  0.00  0.00    -0.650 OA
BRANCH  39  41
ATOM     41  O   UNK d   0     -23.475  -6.069  -3.118  0.00  0.00    -0.776 OA
ATOM     42  H   UNK d   0     -24.314  -5.528  -2.887  0.00  0.00     0.167 HD
ENDBRANCH  39  41
ENDBRANCH  38  39
ENDBRANCH  31  38
BRANCH  27  43
ATOM     43  C   UNK d   0     -18.771  -5.407  -2.467  0.00  0.00     0.052 C 
BRANCH  43  44
ATOM     44  C   UNK d   0     -18.264  -6.577  -3.246  0.00  0.00     0.115 C 
BRANCH  44  45
ATOM     45  C   UNK d   0     -16.838  -6.297  -3.555  0.00  0.00     0.139 C 
ATOM     46  O   UNK d   0     -16.122  -7.246  -3.959  0.00  0.00    -0.650 OA
BRANCH  45  47
ATOM     47  O   UNK d   0     -16.277  -5.045  -3.422  0.00  0.00    -0.776 OA
ATOM     48  H   UNK d   0     -16.603  -4.225  -3.957  0.00  0.00     0.167 HD
ENDBRANCH  45  47
ENDBRANCH  44  45
ENDBRANCH  43  44
ENDBRANCH  27  43
BRANCH  24  49
ATOM     49  C   UNK d   0     -14.938  -7.897   0.659  0.00  0.00     0.052 C 
BRANCH  49  50
ATOM     50  C   UNK d   0     -14.974  -7.088  -0.613  0.00  0.00     0.115 C 
BRANCH  50  51
ATOM     51  C   UNK d   0     -13.968  -6.046  -0.766  0.00  0.00     0.139 C 
ATOM     52  O   UNK d   0     -13.832  -5.387  -1.824  0.00  0.00    -0.650 OA
BRANCH  51  53
ATOM     53  O   UNK d   0     -13.113  -5.757   0.286  0.00  0.00    -0.776 OA
ATOM     54  H   UNK d   0     -12.254  -5.278   0.083  0.00  0.00     0.167 HD
ENDBRANCH  51  53
ENDBRANCH  50  51
ENDBRANCH  49  50
ENDBRANCH  24  49
BRANCH  21  55
ATOM     55  C   UNK d   0     -14.688  -7.481   3.710  0.00  0.00     0.151 C 
BRANCH  55  56
ATOM     56  C   UNK d   0     -13.856  -6.271   3.786  0.00  0.00     0.143 C 
ATOM     57  O   UNK d   0     -14.092  -5.339   4.580  0.00  0.00    -0.650 OA
BRANCH  56  58
ATOM     58  O   UNK d   0     -12.761  -6.180   2.928  0.00  0.00    -0.776 OA
ATOM     59  H   UNK d   0     -12.962  -6.415   1.939  0.00  0.00     0.167 HD
ENDBRANCH  56  58
ENDBRANCH  55  56
ENDBRANCH  21  55
BRANCH  18  60
ATOM     60  C   UNK d   0     -18.790  -7.654   7.167  0.00  0.00     0.151 C 
BRANCH  60  61
ATOM     61  C   UNK d   0     -18.086  -6.715   8.054  0.00  0.00     0.143 C 
ATOM     62  O   UNK d   0     -17.076  -6.062   7.792  0.00  0.00    -0.650 OA
BRANCH  61  63
ATOM     63  O   UNK d   0     -18.652  -6.564   9.343  0.00  0.00    -0.776 OA
ATOM     64  H   UNK d   0     -19.043  -7.350   9.833  0.00  0.00     0.167 HD
ENDBRANCH  61  63
ENDBRANCH  60  61
ENDBRANCH  18  60
BRANCH  14  65
ATOM     65  C   UNK d   0     -21.666  -6.725   7.444  0.00  0.00     0.052 C 
BRANCH  65  66
ATOM     66  C   UNK d   0     -21.809  -5.568   8.367  0.00  0.00     0.115 C 
BRANCH  66  67
ATOM     67  C   UNK d   0     -22.898  -4.649   8.193  0.00  0.00     0.139 C 
ATOM     68  O   UNK d   0     -22.628  -3.406   8.006  0.00  0.00    -0.650 OA
BRANCH  67  69
ATOM     69  O   UNK d   0     -24.263  -4.932   8.200  0.00  0.00    -0.776 OA
ATOM     70  H   UNK d   0     -24.806  -4.501   8.962  0.00  0.00     0.167 HD
ENDBRANCH  67  69
ENDBRANCH  66  67
ENDBRANCH  65  66
ENDBRANCH  14  65
ENDBRANCH   6   7
ENDBRANCH   5   6
ENDBRANCH   2   5
TORSDOF 28
ENDMDL
MODEL 14
REMARK VINA RESULT:      -9.2      5.540     11.133
REMARK  28 active torsions:
REMARK  status: ('A' for Active; 'I' for Inactive)
REMARK    1  A    between atoms: C_2  and  O_3 
REMARK    2  A    between atoms: C_2  and  C_4 
REMARK    3  A    between atoms: C_4  and  C_5 
REMARK    4  A    between atoms: C_5  and  C_6 
REMARK    5  A    between atoms: C_7  and  C_8 
REMARK    6  A    between atoms: C_8  and  C_9 
REMARK    7  A    between atoms: C_9  and  O_11 
REMARK    8  A    between atoms: C_28  and  C_29 
REMARK    9  A    between atoms: C_29  and  C_30 
REMARK   10  A    between atoms: C_30  and  O_32 
REMARK   11  A    between atoms: C_33  and  C_34 
REMARK   12  A    between atoms: C_34  and  C_35 
REMARK   13  A    between atoms: C_35  and  C_36 
REMARK   14  A    between atoms: C_36  and  O_38 
REMARK   15  A    between atoms: C_39  and  C_40 
REMARK   16  A    between atoms: C_40  and  C_41 
REMARK   17  A    between atoms: C_41  and  C_42 
REMARK   18  A    between atoms: C_42  and  O_44 
REMARK   19  A    between atoms: C_45  and  C_46 
REMARK   20  A    between atoms: C_46  and  C_47 
REMARK   21  A    between atoms: C_47  and  O_49 
REMARK   22  A    between atoms: C_50  and  C_51 
REMARK   23  A    between atoms: C_51  and  C_52 
REMARK   24  A    between atoms: C_52  and  O_54 
REMARK   25  A    between atoms: C_55  and  C_56 
REMARK   26  A    between atoms: C_56  and  C_57 
REMARK   27  A    between atoms: C_57  and  C_58 
REMARK   28  A    between atoms: C_58  and  O_60 
ROOT
ATOM      1  O   UNK d   0     -19.844  -5.736   5.336  0.00  0.00    -0.650 OA
ATOM      2  C   UNK d   0     -20.757  -6.578   5.188  0.00  0.00     0.139 C 
ENDROOT
BRANCH   2   3
ATOM      3  O   UNK d   0     -21.210  -6.865   3.923  0.00  0.00    -0.776 OA
ATOM      4  H   UNK d   0     -22.123  -6.536   3.602  0.00  0.00     0.167 HD
ENDBRANCH   2   3
BRANCH   2   5
ATOM      5  C   UNK d   0     -21.346  -7.260   6.375  0.00  0.00     0.115 C 
BRANCH   5   6
ATOM      6  C   UNK d   0     -22.652  -7.909   6.005  0.00  0.00     0.052 C 
BRANCH   6   7
ATOM      7  C   UNK d   0     -23.849  -7.113   6.468  0.00  0.00    -0.020 A 
ATOM      8  C   UNK d   0     -24.576  -7.315   7.537  0.00  0.00    -0.011 A 
ATOM      9  C   UNK d   0     -25.620  -6.305   7.562  0.00  0.00     0.067 A 
ATOM     10  C   UNK d   0     -26.679  -5.963   8.419  0.00  0.00     0.062 C 
ATOM     11  N   UNK d   0     -25.458  -5.533   6.467  0.00  0.00    -0.248 NA
ATOM     12  C   UNK d   0     -27.418  -4.775   8.420  0.00  0.00     0.041 A 
ATOM     13  N   UNK d   0     -27.929  -4.047   7.409  0.00  0.00    -0.355 N 
ATOM     14  C   UNK d   0     -27.671  -4.132   9.646  0.00  0.00    -0.022 A 
ATOM     15  C   UNK d   0     -28.492  -2.956   7.960  0.00  0.00     0.042 A 
ATOM     16  H   UNK d   0     -27.908  -4.310   6.328  0.00  0.00     0.166 HD
ATOM     17  C   UNK d   0     -29.166  -1.874   7.360  0.00  0.00     0.062 C 
ATOM     18  C   UNK d   0     -28.350  -2.974   9.361  0.00  0.00    -0.013 A 
ATOM     19  C   UNK d   0     -28.819  -1.154   6.245  0.00  0.00     0.067 A 
ATOM     20  N   UNK d   0     -27.826  -1.639   5.496  0.00  0.00    -0.248 NA
ATOM     21  C   UNK d   0     -29.259   0.084   5.623  0.00  0.00    -0.011 A 
ATOM     22  C   UNK d   0     -27.583  -0.808   4.430  0.00  0.00     0.066 A 
ATOM     23  C   UNK d   0     -26.596  -1.214   3.544  0.00  0.00     0.062 C 
ATOM     24  C   UNK d   0     -28.528   0.283   4.563  0.00  0.00    -0.020 A 
ATOM     25  C   UNK d   0     -25.874  -2.418   3.554  0.00  0.00     0.041 A 
ATOM     26  N   UNK d   0     -25.353  -3.133   4.558  0.00  0.00    -0.355 N 
ATOM     27  C   UNK d   0     -25.624  -3.065   2.323  0.00  0.00    -0.022 A 
ATOM     28  C   UNK d   0     -24.783  -4.218   4.009  0.00  0.00     0.042 A 
ATOM     29  H   UNK d   0     -25.365  -2.863   5.642  0.00  0.00     0.166 HD
ATOM     30  C   UNK d   0     -24.101  -5.297   4.594  0.00  0.00     0.062 C 
ATOM     31  C   UNK d   0     -24.935  -4.204   2.603  0.00  0.00    -0.013 A 
ATOM     32  C   UNK d   0     -24.408  -5.967   5.767  0.00  0.00     0.066 A 
BRANCH   8  33
ATOM     33  C   UNK d   0     -24.391  -8.374   8.547  0.00  0.00     0.151 C 
BRANCH  33  34
ATOM     34  C   UNK d   0     -24.001  -7.843   9.866  0.00  0.00     0.143 C 
ATOM     35  O   UNK d   0     -24.525  -8.270  10.904  0.00  0.00    -0.650 OA
BRANCH  34  36
ATOM     36  O   UNK d   0     -23.042  -6.859   9.941  0.00  0.00    -0.776 OA
ATOM     37  H   UNK d   0     -22.117  -6.980   9.507  0.00  0.00     0.167 HD
ENDBRANCH  34  36
ENDBRANCH  33  34
ENDBRANCH   8  33
BRANCH  31  38
ATOM     38  C   UNK d   0     -24.460  -5.228   1.598  0.00  0.00     0.151 C 
BRANCH  38  39
ATOM     39  C   UNK d   0     -23.024  -5.214   1.418  0.00  0.00     0.143 C 
ATOM     40  O   UNK d   0     -22.356  -6.258   1.311  0.00  0.00    -0.650 OA
BRANCH  39  41
ATOM     41  O   UNK d   0     -22.351  -3.994   1.362  0.00  0.00    -0.776 OA
ATOM     42  H   UNK d   0     -21.770  -3.749   2.170  0.00  0.00     0.167 HD
ENDBRANCH  39  41
ENDBRANCH  38  39
ENDBRANCH  31  38
BRANCH  27  43
ATOM     43  C   UNK d   0     -26.007  -2.646   0.926  0.00  0.00     0.052 C 
BRANCH  43  44
ATOM     44  C   UNK d   0     -25.257  -1.447   0.442  0.00  0.00     0.115 C 
BRANCH  44  45
ATOM     45  C   UNK d   0     -24.082  -1.957  -0.311  0.00  0.00     0.139 C 
ATOM     46  O   UNK d   0     -22.982  -1.371  -0.159  0.00  0.00    -0.650 OA
BRANCH  45  47
ATOM     47  O   UNK d   0     -24.150  -3.042  -1.158  0.00  0.00    -0.776 OA
ATOM     48  H   UNK d   0     -24.283  -2.949  -2.178  0.00  0.00     0.167 HD
ENDBRANCH  45  47
ENDBRANCH  44  45
ENDBRANCH  43  44
ENDBRANCH  27  43
BRANCH  24  49
ATOM     49  C   UNK d   0     -28.661   1.401   3.614  0.00  0.00     0.052 C 
BRANCH  49  50
ATOM     50  C   UNK d   0     -27.586   1.325   2.561  0.00  0.00     0.115 C 
BRANCH  50  51
ATOM     51  C   UNK d   0     -26.536   2.334   2.608  0.00  0.00     0.139 C 
ATOM     52  O   UNK d   0     -25.356   2.067   2.937  0.00  0.00    -0.650 OA
BRANCH  51  53
ATOM     53  O   UNK d   0     -26.832   3.649   2.283  0.00  0.00    -0.776 OA
ATOM     54  H   UNK d   0     -26.316   4.082   1.537  0.00  0.00     0.167 HD
ENDBRANCH  51  53
ENDBRANCH  50  51
ENDBRANCH  49  50
ENDBRANCH  24  49
BRANCH  21  55
ATOM     55  C   UNK d   0     -30.365   0.937   6.149  0.00  0.00     0.151 C 
BRANCH  55  56
ATOM     56  C   UNK d   0     -30.271   1.126   7.605  0.00  0.00     0.143 C 
ATOM     57  O   UNK d   0     -29.341   1.757   8.145  0.00  0.00    -0.650 OA
BRANCH  56  58
ATOM     58  O   UNK d   0     -31.272   0.568   8.398  0.00  0.00    -0.776 OA
ATOM     59  H   UNK d   0     -30.938  -0.098   9.118  0.00  0.00     0.167 HD
ENDBRANCH  56  58
ENDBRANCH  55  56
ENDBRANCH  21  55
BRANCH  18  60
ATOM     60  C   UNK d   0     -28.816  -1.970  10.387  0.00  0.00     0.151 C 
BRANCH  60  61
ATOM     61  C   UNK d   0     -30.150  -2.418  10.813  0.00  0.00     0.143 C 
ATOM     62  O   UNK d   0     -30.416  -3.175  11.747  0.00  0.00    -0.650 OA
BRANCH  61  63
ATOM     63  O   UNK d   0     -31.229  -1.909  10.051  0.00  0.00    -0.776 OA
ATOM     64  H   UNK d   0     -32.077  -1.603  10.493  0.00  0.00     0.167 HD
ENDBRANCH  61  63
ENDBRANCH  60  61
ENDBRANCH  18  60
BRANCH  14  65
ATOM     65  C   UNK d   0     -27.408  -4.574  11.057  0.00  0.00     0.052 C 
BRANCH  65  66
ATOM     66  C   UNK d   0     -26.227  -3.905  11.666  0.00  0.00     0.115 C 
BRANCH  66  67
ATOM     67  C   UNK d   0     -24.910  -4.421  11.417  0.00  0.00     0.139 C 
ATOM     68  O   UNK d   0     -24.435  -5.305  12.222  0.00  0.00    -0.650 OA
BRANCH  67  69
ATOM     69  O   UNK d   0     -24.042  -4.081  10.380  0.00  0.00    -0.776 OA
ATOM     70  H   UNK d   0     -24.423  -4.177   9.428  0.00  0.00     0.167 HD
ENDBRANCH  67  69
ENDBRANCH  66  67
ENDBRANCH  65  66
ENDBRANCH  14  65
ENDBRANCH   6   7
ENDBRANCH   5   6
ENDBRANCH   2   5
TORSDOF 28
ENDMDL
MODEL 15
REMARK VINA RESULT:      -9.1      1.678      7.392
REMARK  28 active torsions:
REMARK  status: ('A' for Active; 'I' for Inactive)
REMARK    1  A    between atoms: C_2  and  O_3 
REMARK    2  A    between atoms: C_2  and  C_4 
REMARK    3  A    between atoms: C_4  and  C_5 
REMARK    4  A    between atoms: C_5  and  C_6 
REMARK    5  A    between atoms: C_7  and  C_8 
REMARK    6  A    between atoms: C_8  and  C_9 
REMARK    7  A    between atoms: C_9  and  O_11 
REMARK    8  A    between atoms: C_28  and  C_29 
REMARK    9  A    between atoms: C_29  and  C_30 
REMARK   10  A    between atoms: C_30  and  O_32 
REMARK   11  A    between atoms: C_33  and  C_34 
REMARK   12  A    between atoms: C_34  and  C_35 
REMARK   13  A    between atoms: C_35  and  C_36 
REMARK   14  A    between atoms: C_36  and  O_38 
REMARK   15  A    between atoms: C_39  and  C_40 
REMARK   16  A    between atoms: C_40  and  C_41 
REMARK   17  A    between atoms: C_41  and  C_42 
REMARK   18  A    between atoms: C_42  and  O_44 
REMARK   19  A    between atoms: C_45  and  C_46 
REMARK   20  A    between atoms: C_46  and  C_47 
REMARK   21  A    between atoms: C_47  and  O_49 
REMARK   22  A    between atoms: C_50  and  C_51 
REMARK   23  A    between atoms: C_51  and  C_52 
REMARK   24  A    between atoms: C_52  and  O_54 
REMARK   25  A    between atoms: C_55  and  C_56 
REMARK   26  A    between atoms: C_56  and  C_57 
REMARK   27  A    between atoms: C_57  and  C_58 
REMARK   28  A    between atoms: C_58  and  O_60 
ROOT
ATOM      1  O   UNK d   0     -24.954  -7.351   6.562  0.00  0.00    -0.650 OA
ATOM      2  C   UNK d   0     -23.714  -7.480   6.454  0.00  0.00     0.139 C 
ENDROOT
BRANCH   2   3
ATOM      3  O   UNK d   0     -23.201  -8.636   5.917  0.00  0.00    -0.776 OA
ATOM      4  H   UNK d   0     -22.775  -8.642   4.988  0.00  0.00     0.167 HD
ENDBRANCH   2   3
BRANCH   2   5
ATOM      5  C   UNK d   0     -22.806  -6.388   6.906  0.00  0.00     0.115 C 
BRANCH   5   6
ATOM      6  C   UNK d   0     -23.093  -5.125   6.140  0.00  0.00     0.052 C 
BRANCH   6   7
ATOM      7  C   UNK d   0     -22.783  -5.256   4.668  0.00  0.00    -0.020 A 
ATOM      8  C   UNK d   0     -23.631  -5.274   3.672  0.00  0.00    -0.011 A 
ATOM      9  C   UNK d   0     -22.871  -5.426   2.442  0.00  0.00     0.067 A 
ATOM     10  C   UNK d   0     -23.166  -5.492   1.072  0.00  0.00     0.062 C 
ATOM     11  N   UNK d   0     -21.568  -5.497   2.784  0.00  0.00    -0.248 NA
ATOM     12  C   UNK d   0     -22.270  -5.360   0.005  0.00  0.00     0.041 A 
ATOM     13  N   UNK d   0     -21.032  -5.857  -0.180  0.00  0.00    -0.355 N 
ATOM     14  C   UNK d   0     -22.622  -4.538  -1.081  0.00  0.00    -0.022 A 
ATOM     15  C   UNK d   0     -20.587  -5.365  -1.352  0.00  0.00     0.042 A 
ATOM     16  H   UNK d   0     -20.492  -6.557   0.494  0.00  0.00     0.166 HD
ATOM     17  C   UNK d   0     -19.362  -5.566  -2.020  0.00  0.00     0.062 C 
ATOM     18  C   UNK d   0     -21.556  -4.534  -1.946  0.00  0.00    -0.013 A 
ATOM     19  C   UNK d   0     -18.089  -5.552  -1.509  0.00  0.00     0.067 A 
ATOM     20  N   UNK d   0     -17.971  -5.546  -0.179  0.00  0.00    -0.248 NA
ATOM     21  C   UNK d   0     -16.744  -5.527  -2.058  0.00  0.00    -0.011 A 
ATOM     22  C   UNK d   0     -16.646  -5.518   0.181  0.00  0.00     0.066 A 
ATOM     23  C   UNK d   0     -16.377  -5.547   1.542  0.00  0.00     0.062 C 
ATOM     24  C   UNK d   0     -15.904  -5.502  -1.064  0.00  0.00    -0.020 A 
ATOM     25  C   UNK d   0     -17.291  -5.693   2.597  0.00  0.00     0.041 A 
ATOM     26  N   UNK d   0     -18.515  -5.187   2.788  0.00  0.00    -0.355 N 
ATOM     27  C   UNK d   0     -16.939  -6.522   3.684  0.00  0.00    -0.022 A 
ATOM     28  C   UNK d   0     -18.958  -5.669   3.960  0.00  0.00     0.042 A 
ATOM     29  H   UNK d   0     -19.052  -4.475   2.114  0.00  0.00     0.166 HD
ATOM     30  C   UNK d   0     -20.169  -5.471   4.641  0.00  0.00     0.062 C 
ATOM     31  C   UNK d   0     -17.988  -6.513   4.551  0.00  0.00    -0.013 A 
ATOM     32  C   UNK d   0     -21.447  -5.400   4.108  0.00  0.00     0.066 A 
BRANCH   8  33
ATOM     33  C   UNK d   0     -25.100  -5.168   3.758  0.00  0.00     0.151 C 
BRANCH  33  34
ATOM     34  C   UNK d   0     -25.553  -3.820   4.145  0.00  0.00     0.143 C 
ATOM     35  O   UNK d   0     -25.148  -2.816   3.542  0.00  0.00    -0.650 OA
BRANCH  34  36
ATOM     36  O   UNK d   0     -26.436  -3.678   5.190  0.00  0.00    -0.776 OA
ATOM     37  H   UNK d   0     -26.133  -3.298   6.097  0.00  0.00     0.167 HD
ENDBRANCH  34  36
ENDBRANCH  33  34
ENDBRANCH   8  33
BRANCH  31  38
ATOM     38  C   UNK d   0     -18.073  -7.269   5.856  0.00  0.00     0.151 C 
BRANCH  38  39
ATOM     39  C   UNK d   0     -17.522  -6.529   6.971  0.00  0.00     0.143 C 
ATOM     40  O   UNK d   0     -16.430  -5.939   6.904  0.00  0.00    -0.650 OA
BRANCH  39  41
ATOM     41  O   UNK d   0     -18.233  -6.465   8.170  0.00  0.00    -0.776 OA
ATOM     42  H   UNK d   0     -18.761  -7.301   8.438  0.00  0.00     0.167 HD
ENDBRANCH  39  41
ENDBRANCH  38  39
ENDBRANCH  31  38
BRANCH  27  43
ATOM     43  C   UNK d   0     -15.670  -7.302   3.924  0.00  0.00     0.052 C 
BRANCH  43  44
ATOM     44  C   UNK d   0     -15.472  -8.421   2.953  0.00  0.00     0.115 C 
BRANCH  44  45
ATOM     45  C   UNK d   0     -14.849  -9.536   3.713  0.00  0.00     0.139 C 
ATOM     46  O   UNK d   0     -14.858  -9.476   4.967  0.00  0.00    -0.650 OA
BRANCH  45  47
ATOM     47  O   UNK d   0     -14.271 -10.627   3.100  0.00  0.00    -0.776 OA
ATOM     48  H   UNK d   0     -13.711 -11.327   3.613  0.00  0.00     0.167 HD
ENDBRANCH  45  47
ENDBRANCH  44  45
ENDBRANCH  43  44
ENDBRANCH  27  43
BRANCH  24  49
ATOM     49  C   UNK d   0     -14.435  -5.510  -1.167  0.00  0.00     0.052 C 
BRANCH  49  50
ATOM     50  C   UNK d   0     -13.853  -6.590  -0.292  0.00  0.00     0.115 C 
BRANCH  50  51
ATOM     51  C   UNK d   0     -12.913  -6.175   0.740  0.00  0.00     0.139 C 
ATOM     52  O   UNK d   0     -12.962  -6.611   1.915  0.00  0.00    -0.650 OA
BRANCH  51  53
ATOM     53  O   UNK d   0     -11.916  -5.261   0.433  0.00  0.00    -0.776 OA
ATOM     54  H   UNK d   0     -12.187  -4.317   0.222  0.00  0.00     0.167 HD
ENDBRANCH  51  53
ENDBRANCH  50  51
ENDBRANCH  49  50
ENDBRANCH  24  49
BRANCH  21  55
ATOM     55  C   UNK d   0     -16.438  -5.534  -3.520  0.00  0.00     0.151 C 
BRANCH  55  56
ATOM     56  C   UNK d   0     -16.194  -6.894  -4.025  0.00  0.00     0.143 C 
ATOM     57  O   UNK d   0     -15.352  -7.143  -4.910  0.00  0.00    -0.650 OA
BRANCH  56  58
ATOM     58  O   UNK d   0     -16.944  -7.934  -3.480  0.00  0.00    -0.776 OA
ATOM     59  H   UNK d   0     -17.959  -7.892  -3.683  0.00  0.00     0.167 HD
ENDBRANCH  56  58
ENDBRANCH  55  56
ENDBRANCH  21  55
BRANCH  18  60
ATOM     60  C   UNK d   0     -21.500  -3.770  -3.246  0.00  0.00     0.151 C 
BRANCH  60  61
ATOM     61  C   UNK d   0     -21.502  -4.785  -4.310  0.00  0.00     0.143 C 
ATOM     62  O   UNK d   0     -20.690  -4.898  -5.229  0.00  0.00    -0.650 OA
BRANCH  61  63
ATOM     63  O   UNK d   0     -22.563  -5.720  -4.249  0.00  0.00    -0.776 OA
ATOM     64  H   UNK d   0     -22.877  -6.203  -5.072  0.00  0.00     0.167 HD
ENDBRANCH  61  63
ENDBRANCH  60  61
ENDBRANCH  18  60
BRANCH  14  65
ATOM     65  C   UNK d   0     -23.913  -3.842  -1.407  0.00  0.00     0.052 C 
BRANCH  65  66
ATOM     66  C   UNK d   0     -24.018  -2.493  -0.790  0.00  0.00     0.115 C 
BRANCH  66  67
ATOM     67  C   UNK d   0     -25.262  -2.071  -0.209  0.00  0.00     0.139 C 
ATOM     68  O   UNK d   0     -25.804  -0.987  -0.640  0.00  0.00    -0.650 OA
BRANCH  67  69
ATOM     69  O   UNK d   0     -25.990  -2.701   0.799  0.00  0.00    -0.776 OA
ATOM     70  H   UNK d   0     -27.014  -2.604   0.740  0.00  0.00     0.167 HD
ENDBRANCH  67  69
ENDBRANCH  66  67
ENDBRANCH  65  66
ENDBRANCH  14  65
ENDBRANCH   6   7
ENDBRANCH   5   6
ENDBRANCH   2   5
TORSDOF 28
ENDMDL
MODEL 16
REMARK VINA RESULT:      -9.1      2.438      8.025
REMARK  28 active torsions:
REMARK  status: ('A' for Active; 'I' for Inactive)
REMARK    1  A    between atoms: C_2  and  O_3 
REMARK    2  A    between atoms: C_2  and  C_4 
REMARK    3  A    between atoms: C_4  and  C_5 
REMARK    4  A    between atoms: C_5  and  C_6 
REMARK    5  A    between atoms: C_7  and  C_8 
REMARK    6  A    between atoms: C_8  and  C_9 
REMARK    7  A    between atoms: C_9  and  O_11 
REMARK    8  A    between atoms: C_28  and  C_29 
REMARK    9  A    between atoms: C_29  and  C_30 
REMARK   10  A    between atoms: C_30  and  O_32 
REMARK   11  A    between atoms: C_33  and  C_34 
REMARK   12  A    between atoms: C_34  and  C_35 
REMARK   13  A    between atoms: C_35  and  C_36 
REMARK   14  A    between atoms: C_36  and  O_38 
REMARK   15  A    between atoms: C_39  and  C_40 
REMARK   16  A    between atoms: C_40  and  C_41 
REMARK   17  A    between atoms: C_41  and  C_42 
REMARK   18  A    between atoms: C_42  and  O_44 
REMARK   19  A    between atoms: C_45  and  C_46 
REMARK   20  A    between atoms: C_46  and  C_47 
REMARK   21  A    between atoms: C_47  and  O_49 
REMARK   22  A    between atoms: C_50  and  C_51 
REMARK   23  A    between atoms: C_51  and  C_52 
REMARK   24  A    between atoms: C_52  and  O_54 
REMARK   25  A    between atoms: C_55  and  C_56 
REMARK   26  A    between atoms: C_56  and  C_57 
REMARK   27  A    between atoms: C_57  and  C_58 
REMARK   28  A    between atoms: C_58  and  O_60 
ROOT
ATOM      1  O   UNK d   0     -25.544  -2.003   7.941  0.00  0.00    -0.650 OA
ATOM      2  C   UNK d   0     -24.951  -2.079   6.842  0.00  0.00     0.139 C 
ENDROOT
BRANCH   2   3
ATOM      3  O   UNK d   0     -23.582  -1.969   6.807  0.00  0.00    -0.776 OA
ATOM      4  H   UNK d   0     -23.118  -1.082   7.013  0.00  0.00     0.167 HD
ENDBRANCH   2   3
BRANCH   2   5
ATOM      5  C   UNK d   0     -25.726  -2.287   5.586  0.00  0.00     0.115 C 
BRANCH   5   6
ATOM      6  C   UNK d   0     -25.900  -3.758   5.322  0.00  0.00     0.052 C 
BRANCH   6   7
ATOM      7  C   UNK d   0     -25.042  -4.250   4.181  0.00  0.00    -0.020 A 
ATOM      8  C   UNK d   0     -25.364  -4.326   2.915  0.00  0.00    -0.011 A 
ATOM      9  C   UNK d   0     -24.222  -4.867   2.197  0.00  0.00     0.067 A 
ATOM     10  C   UNK d   0     -23.917  -5.168   0.860  0.00  0.00     0.062 C 
ATOM     11  N   UNK d   0     -23.250  -5.096   3.104  0.00  0.00    -0.248 NA
ATOM     12  C   UNK d   0     -22.653  -5.425   0.317  0.00  0.00     0.041 A 
ATOM     13  N   UNK d   0     -21.625  -6.163   0.776  0.00  0.00    -0.355 N 
ATOM     14  C   UNK d   0     -22.292  -4.801  -0.891  0.00  0.00    -0.022 A 
ATOM     15  C   UNK d   0     -20.617  -6.017  -0.105  0.00  0.00     0.042 A 
ATOM     16  H   UNK d   0     -21.617  -6.790   1.695  0.00  0.00     0.166 HD
ATOM     17  C   UNK d   0     -19.321  -6.568  -0.110  0.00  0.00     0.062 C 
ATOM     18  C   UNK d   0     -20.998  -5.170  -1.164  0.00  0.00    -0.013 A 
ATOM     19  C   UNK d   0     -18.425  -6.675   0.923  0.00  0.00     0.067 A 
ATOM     20  N   UNK d   0     -18.882  -6.409   2.150  0.00  0.00    -0.248 NA
ATOM     21  C   UNK d   0     -17.016  -7.006   1.055  0.00  0.00    -0.011 A 
ATOM     22  C   UNK d   0     -17.874  -6.542   3.073  0.00  0.00     0.066 A 
ATOM     23  C   UNK d   0     -18.222  -6.331   4.399  0.00  0.00     0.062 C 
ATOM     24  C   UNK d   0     -16.699  -6.922   2.315  0.00  0.00    -0.020 A 
ATOM     25  C   UNK d   0     -19.500  -6.086   4.926  0.00  0.00     0.041 A 
ATOM     26  N   UNK d   0     -20.517  -5.341   4.477  0.00  0.00    -0.355 N 
ATOM     27  C   UNK d   0     -19.863  -6.716   6.136  0.00  0.00    -0.022 A 
ATOM     28  C   UNK d   0     -21.520  -5.478   5.359  0.00  0.00     0.042 A 
ATOM     29  H   UNK d   0     -20.519  -4.703   3.559  0.00  0.00     0.166 HD
ATOM     30  C   UNK d   0     -22.811  -4.928   5.381  0.00  0.00     0.062 C 
ATOM     31  C   UNK d   0     -21.140  -6.337   6.417  0.00  0.00    -0.013 A 
ATOM     32  C   UNK d   0     -23.680  -4.745   4.317  0.00  0.00     0.066 A 
BRANCH   8  33
ATOM     33  C   UNK d   0     -26.652  -3.944   2.305  0.00  0.00     0.151 C 
BRANCH  33  34
ATOM     34  C   UNK d   0     -26.546  -2.748   1.451  0.00  0.00     0.143 C 
ATOM     35  O   UNK d   0     -26.959  -2.761   0.283  0.00  0.00    -0.650 OA
BRANCH  34  36
ATOM     36  O   UNK d   0     -25.978  -1.603   1.960  0.00  0.00    -0.776 OA
ATOM     37  H   UNK d   0     -25.337  -1.636   2.764  0.00  0.00     0.167 HD
ENDBRANCH  34  36
ENDBRANCH  33  34
ENDBRANCH   8  33
BRANCH  31  38
ATOM     38  C   UNK d   0     -21.957  -6.774   7.611  0.00  0.00     0.151 C 
BRANCH  38  39
ATOM     39  C   UNK d   0     -21.783  -5.908   8.757  0.00  0.00     0.143 C 
ATOM     40  O   UNK d   0     -22.208  -4.739   8.779  0.00  0.00    -0.650 OA
BRANCH  39  41
ATOM     41  O   UNK d   0     -21.119  -6.388   9.885  0.00  0.00    -0.776 OA
ATOM     42  H   UNK d   0     -20.378  -5.795  10.272  0.00  0.00     0.167 HD
ENDBRANCH  39  41
ENDBRANCH  38  39
ENDBRANCH  31  38
BRANCH  27  43
ATOM     43  C   UNK d   0     -19.058  -7.641   7.014  0.00  0.00     0.052 C 
BRANCH  43  44
ATOM     44  C   UNK d   0     -18.200  -6.920   8.003  0.00  0.00     0.115 C 
BRANCH  44  45
ATOM     45  C   UNK d   0     -17.798  -7.921   9.025  0.00  0.00     0.139 C 
ATOM     46  O   UNK d   0     -17.852  -7.585  10.234  0.00  0.00    -0.650 OA
BRANCH  45  47
ATOM     47  O   UNK d   0     -17.377  -9.192   8.702  0.00  0.00    -0.776 OA
ATOM     48  H   UNK d   0     -17.905 -10.041   8.962  0.00  0.00     0.167 HD
ENDBRANCH  45  47
ENDBRANCH  44  45
ENDBRANCH  43  44
ENDBRANCH  27  43
BRANCH  24  49
ATOM     49  C   UNK d   0     -15.379  -7.213   2.899  0.00  0.00     0.052 C 
BRANCH  49  50
ATOM     50  C   UNK d   0     -15.387  -8.564   3.567  0.00  0.00     0.115 C 
BRANCH  50  51
ATOM     51  C   UNK d   0     -15.176  -9.728   2.717  0.00  0.00     0.139 C 
ATOM     52  O   UNK d   0     -14.048 -10.251   2.555  0.00  0.00    -0.650 OA
BRANCH  51  53
ATOM     53  O   UNK d   0     -16.251 -10.295   2.049  0.00  0.00    -0.776 OA
ATOM     54  H   UNK d   0     -16.251 -11.289   1.906  0.00  0.00     0.167 HD
ENDBRANCH  51  53
ENDBRANCH  50  51
ENDBRANCH  49  50
ENDBRANCH  24  49
BRANCH  21  55
ATOM     55  C   UNK d   0     -16.135  -7.376  -0.092  0.00  0.00     0.151 C 
BRANCH  55  56
ATOM     56  C   UNK d   0     -16.786  -8.330  -1.002  0.00  0.00     0.143 C 
ATOM     57  O   UNK d   0     -17.090  -8.043  -2.177  0.00  0.00    -0.650 OA
BRANCH  56  58
ATOM     58  O   UNK d   0     -17.066  -9.605  -0.514  0.00  0.00    -0.776 OA
ATOM     59  H   UNK d   0     -18.029  -9.732  -0.153  0.00  0.00     0.167 HD
ENDBRANCH  56  58
ENDBRANCH  55  56
ENDBRANCH  21  55
BRANCH  18  60
ATOM     60  C   UNK d   0     -20.207  -4.720  -2.367  0.00  0.00     0.151 C 
BRANCH  60  61
ATOM     61  C   UNK d   0     -20.447  -5.730  -3.409  0.00  0.00     0.143 C 
ATOM     62  O   UNK d   0     -21.322  -5.709  -4.275  0.00  0.00    -0.650 OA
BRANCH  61  63
ATOM     63  O   UNK d   0     -19.563  -6.835  -3.392  0.00  0.00    -0.776 OA
ATOM     64  H   UNK d   0     -19.015  -7.073  -4.200  0.00  0.00     0.167 HD
ENDBRANCH  61  63
ENDBRANCH  60  61
ENDBRANCH  18  60
BRANCH  14  65
ATOM     65  C   UNK d   0     -23.101  -3.971  -1.847  0.00  0.00     0.052 C 
BRANCH  65  66
ATOM     66  C   UNK d   0     -22.887  -2.509  -1.674  0.00  0.00     0.115 C 
BRANCH  66  67
ATOM     67  C   UNK d   0     -23.682  -1.780  -0.727  0.00  0.00     0.139 C 
ATOM     68  O   UNK d   0     -23.266  -1.695   0.487  0.00  0.00    -0.650 OA
BRANCH  67  69
ATOM     69  O   UNK d   0     -24.893  -1.127  -0.953  0.00  0.00    -0.776 OA
ATOM     70  H   UNK d   0     -25.030  -0.246  -0.437  0.00  0.00     0.167 HD
ENDBRANCH  67  69
ENDBRANCH  66  67
ENDBRANCH  65  66
ENDBRANCH  14  65
ENDBRANCH   6   7
ENDBRANCH   5   6
ENDBRANCH   2   5
TORSDOF 28
ENDMDL
MODEL 17
REMARK VINA RESULT:      -9.1      1.779      4.286
REMARK  28 active torsions:
REMARK  status: ('A' for Active; 'I' for Inactive)
REMARK    1  A    between atoms: C_2  and  O_3 
REMARK    2  A    between atoms: C_2  and  C_4 
REMARK    3  A    between atoms: C_4  and  C_5 
REMARK    4  A    between atoms: C_5  and  C_6 
REMARK    5  A    between atoms: C_7  and  C_8 
REMARK    6  A    between atoms: C_8  and  C_9 
REMARK    7  A    between atoms: C_9  and  O_11 
REMARK    8  A    between atoms: C_28  and  C_29 
REMARK    9  A    between atoms: C_29  and  C_30 
REMARK   10  A    between atoms: C_30  and  O_32 
REMARK   11  A    between atoms: C_33  and  C_34 
REMARK   12  A    between atoms: C_34  and  C_35 
REMARK   13  A    between atoms: C_35  and  C_36 
REMARK   14  A    between atoms: C_36  and  O_38 
REMARK   15  A    between atoms: C_39  and  C_40 
REMARK   16  A    between atoms: C_40  and  C_41 
REMARK   17  A    between atoms: C_41  and  C_42 
REMARK   18  A    between atoms: C_42  and  O_44 
REMARK   19  A    between atoms: C_45  and  C_46 
REMARK   20  A    between atoms: C_46  and  C_47 
REMARK   21  A    between atoms: C_47  and  O_49 
REMARK   22  A    between atoms: C_50  and  C_51 
REMARK   23  A    between atoms: C_51  and  C_52 
REMARK   24  A    between atoms: C_52  and  O_54 
REMARK   25  A    between atoms: C_55  and  C_56 
REMARK   26  A    between atoms: C_56  and  C_57 
REMARK   27  A    between atoms: C_57  and  C_58 
REMARK   28  A    between atoms: C_58  and  O_60 
ROOT
ATOM      1  O   UNK d   0     -24.309  -2.604  -1.229  0.00  0.00    -0.650 OA
ATOM      2  C   UNK d   0     -24.921  -2.460  -0.147  0.00  0.00     0.139 C 
ENDROOT
BRANCH   2   3
ATOM      3  O   UNK d   0     -24.486  -1.517   0.753  0.00  0.00    -0.776 OA
ATOM      4  H   UNK d   0     -24.151  -1.788   1.680  0.00  0.00     0.167 HD
ENDBRANCH   2   3
BRANCH   2   5
ATOM      5  C   UNK d   0     -26.110  -3.306   0.157  0.00  0.00     0.115 C 
BRANCH   5   6
ATOM      6  C   UNK d   0     -25.691  -4.738   0.349  0.00  0.00     0.052 C 
BRANCH   6   7
ATOM      7  C   UNK d   0     -24.544  -4.882   1.321  0.00  0.00    -0.020 A 
ATOM      8  C   UNK d   0     -24.569  -4.708   2.617  0.00  0.00    -0.011 A 
ATOM      9  C   UNK d   0     -23.229  -4.949   3.125  0.00  0.00     0.067 A 
ATOM     10  C   UNK d   0     -22.608  -4.949   4.384  0.00  0.00     0.062 C 
ATOM     11  N   UNK d   0     -22.450  -5.259   2.068  0.00  0.00    -0.248 NA
ATOM     12  C   UNK d   0     -21.356  -5.482   4.711  0.00  0.00     0.041 A 
ATOM     13  N   UNK d   0     -20.175  -5.431   4.066  0.00  0.00    -0.355 N 
ATOM     14  C   UNK d   0     -21.233  -6.267   5.872  0.00  0.00    -0.022 A 
ATOM     15  C   UNK d   0     -19.308  -6.170   4.784  0.00  0.00     0.042 A 
ATOM     16  H   UNK d   0     -19.953  -4.868   3.133  0.00  0.00     0.166 HD
ATOM     17  C   UNK d   0     -17.945  -6.449   4.563  0.00  0.00     0.062 C 
ATOM     18  C   UNK d   0     -19.935  -6.710   5.923  0.00  0.00    -0.013 A 
ATOM     19  C   UNK d   0     -17.316  -6.810   3.398  0.00  0.00     0.067 A 
ATOM     20  N   UNK d   0     -18.023  -6.701   2.271  0.00  0.00    -0.248 NA
ATOM     21  C   UNK d   0     -16.008  -7.327   3.034  0.00  0.00    -0.011 A 
ATOM     22  C   UNK d   0     -17.273  -7.111   1.196  0.00  0.00     0.066 A 
ATOM     23  C   UNK d   0     -17.875  -7.014  -0.049  0.00  0.00     0.062 C 
ATOM     24  C   UNK d   0     -15.990  -7.505   1.745  0.00  0.00    -0.020 A 
ATOM     25  C   UNK d   0     -19.129  -6.463  -0.358  0.00  0.00     0.041 A 
ATOM     26  N   UNK d   0     -20.306  -6.526   0.274  0.00  0.00    -0.355 N 
ATOM     27  C   UNK d   0     -19.250  -5.672  -1.521  0.00  0.00    -0.022 A 
ATOM     28  C   UNK d   0     -21.175  -5.797  -0.444  0.00  0.00     0.042 A 
ATOM     29  H   UNK d   0     -20.530  -7.101   1.206  0.00  0.00     0.166 HD
ATOM     30  C   UNK d   0     -22.536  -5.519  -0.241  0.00  0.00     0.062 C 
ATOM     31  C   UNK d   0     -20.541  -5.246  -1.583  0.00  0.00    -0.013 A 
ATOM     32  C   UNK d   0     -23.181  -5.237   0.953  0.00  0.00     0.066 A 
BRANCH   8  33
ATOM     33  C   UNK d   0     -25.735  -4.328   3.437  0.00  0.00     0.151 C 
BRANCH  33  34
ATOM     34  C   UNK d   0     -25.654  -2.944   3.938  0.00  0.00     0.143 C 
ATOM     35  O   UNK d   0     -26.152  -2.006   3.300  0.00  0.00    -0.650 OA
BRANCH  34  36
ATOM     36  O   UNK d   0     -25.014  -2.694   5.130  0.00  0.00    -0.776 OA
ATOM     37  H   UNK d   0     -24.813  -3.451   5.798  0.00  0.00     0.167 HD
ENDBRANCH  34  36
ENDBRANCH  33  34
ENDBRANCH   8  33
BRANCH  31  38
ATOM     38  C   UNK d   0     -21.137  -4.358  -2.650  0.00  0.00     0.151 C 
BRANCH  38  39
ATOM     39  C   UNK d   0     -21.556  -5.094  -3.824  0.00  0.00     0.143 C 
ATOM     40  O   UNK d   0     -22.598  -5.772  -3.848  0.00  0.00    -0.650 OA
BRANCH  39  41
ATOM     41  O   UNK d   0     -20.773  -5.051  -4.977  0.00  0.00    -0.776 OA
ATOM     42  H   UNK d   0     -20.179  -5.865  -5.163  0.00  0.00     0.167 HD
ENDBRANCH  39  41
ENDBRANCH  38  39
ENDBRANCH  31  38
BRANCH  27  43
ATOM     43  C   UNK d   0     -18.208  -5.317  -2.552  0.00  0.00     0.052 C 
BRANCH  43  44
ATOM     44  C   UNK d   0     -17.646  -6.507  -3.258  0.00  0.00     0.115 C 
BRANCH  44  45
ATOM     45  C   UNK d   0     -16.196  -6.241  -3.452  0.00  0.00     0.139 C 
ATOM     46  O   UNK d   0     -15.570  -5.673  -2.524  0.00  0.00    -0.650 OA
BRANCH  45  47
ATOM     47  O   UNK d   0     -15.519  -6.594  -4.599  0.00  0.00    -0.776 OA
ATOM     48  H   UNK d   0     -15.489  -7.562  -4.957  0.00  0.00     0.167 HD
ENDBRANCH  45  47
ENDBRANCH  44  45
ENDBRANCH  43  44
ENDBRANCH  27  43
BRANCH  24  49
ATOM     49  C   UNK d   0     -14.845  -7.979   0.949  0.00  0.00     0.052 C 
BRANCH  49  50
ATOM     50  C   UNK d   0     -14.718  -9.477   1.054  0.00  0.00     0.115 C 
BRANCH  50  51
ATOM     51  C   UNK d   0     -15.936 -10.261   0.898  0.00  0.00     0.139 C 
ATOM     52  O   UNK d   0     -16.435 -10.928   1.834  0.00  0.00    -0.650 OA
BRANCH  51  53
ATOM     53  O   UNK d   0     -16.583 -10.285  -0.328  0.00  0.00    -0.776 OA
ATOM     54  H   UNK d   0     -17.512  -9.904  -0.383  0.00  0.00     0.167 HD
ENDBRANCH  51  53
ENDBRANCH  50  51
ENDBRANCH  49  50
ENDBRANCH  24  49
BRANCH  21  55
ATOM     55  C   UNK d   0     -14.910  -7.585   4.013  0.00  0.00     0.151 C 
BRANCH  55  56
ATOM     56  C   UNK d   0     -14.443  -6.348   4.656  0.00  0.00     0.143 C 
ATOM     57  O   UNK d   0     -14.682  -6.076   5.849  0.00  0.00    -0.650 OA
BRANCH  56  58
ATOM     58  O   UNK d   0     -13.702  -5.454   3.884  0.00  0.00    -0.776 OA
ATOM     59  H   UNK d   0     -13.225  -4.707   4.420  0.00  0.00     0.167 HD
ENDBRANCH  56  58
ENDBRANCH  55  56
ENDBRANCH  21  55
BRANCH  18  60
ATOM     60  C   UNK d   0     -19.366  -7.595   7.005  0.00  0.00     0.151 C 
BRANCH  60  61
ATOM     61  C   UNK d   0     -18.639  -6.700   7.918  0.00  0.00     0.143 C 
ATOM     62  O   UNK d   0     -17.467  -6.335   7.822  0.00  0.00    -0.650 OA
BRANCH  61  63
ATOM     63  O   UNK d   0     -19.392  -6.220   9.017  0.00  0.00    -0.776 OA
ATOM     64  H   UNK d   0     -19.078  -5.432   9.555  0.00  0.00     0.167 HD
ENDBRANCH  61  63
ENDBRANCH  60  61
ENDBRANCH  18  60
BRANCH  14  65
ATOM     65  C   UNK d   0     -22.213  -6.545   6.976  0.00  0.00     0.052 C 
BRANCH  65  66
ATOM     66  C   UNK d   0     -22.301  -5.441   7.968  0.00  0.00     0.115 C 
BRANCH  66  67
ATOM     67  C   UNK d   0     -23.086  -4.276   7.669  0.00  0.00     0.139 C 
ATOM     68  O   UNK d   0     -24.367  -4.386   7.654  0.00  0.00    -0.650 OA
BRANCH  67  69
ATOM     69  O   UNK d   0     -22.629  -2.991   7.380  0.00  0.00    -0.776 OA
ATOM     70  H   UNK d   0     -21.623  -2.828   7.531  0.00  0.00     0.167 HD
ENDBRANCH  67  69
ENDBRANCH  66  67
ENDBRANCH  65  66
ENDBRANCH  14  65
ENDBRANCH   6   7
ENDBRANCH   5   6
ENDBRANCH   2   5
TORSDOF 28
ENDMDL
MODEL 18
REMARK VINA RESULT:      -9.0      1.909     10.979
REMARK  28 active torsions:
REMARK  status: ('A' for Active; 'I' for Inactive)
REMARK    1  A    between atoms: C_2  and  O_3 
REMARK    2  A    between atoms: C_2  and  C_4 
REMARK    3  A    between atoms: C_4  and  C_5 
REMARK    4  A    between atoms: C_5  and  C_6 
REMARK    5  A    between atoms: C_7  and  C_8 
REMARK    6  A    between atoms: C_8  and  C_9 
REMARK    7  A    between atoms: C_9  and  O_11 
REMARK    8  A    between atoms: C_28  and  C_29 
REMARK    9  A    between atoms: C_29  and  C_30 
REMARK   10  A    between atoms: C_30  and  O_32 
REMARK   11  A    between atoms: C_33  and  C_34 
REMARK   12  A    between atoms: C_34  and  C_35 
REMARK   13  A    between atoms: C_35  and  C_36 
REMARK   14  A    between atoms: C_36  and  O_38 
REMARK   15  A    between atoms: C_39  and  C_40 
REMARK   16  A    between atoms: C_40  and  C_41 
REMARK   17  A    between atoms: C_41  and  C_42 
REMARK   18  A    between atoms: C_42  and  O_44 
REMARK   19  A    between atoms: C_45  and  C_46 
REMARK   20  A    between atoms: C_46  and  C_47 
REMARK   21  A    between atoms: C_47  and  O_49 
REMARK   22  A    between atoms: C_50  and  C_51 
REMARK   23  A    between atoms: C_51  and  C_52 
REMARK   24  A    between atoms: C_52  and  O_54 
REMARK   25  A    between atoms: C_55  and  C_56 
REMARK   26  A    between atoms: C_56  and  C_57 
REMARK   27  A    between atoms: C_57  and  C_58 
REMARK   28  A    between atoms: C_58  and  O_60 
ROOT
ATOM      1  O   UNK d   0     -13.937  -7.963   1.698  0.00  0.00    -0.650 OA
ATOM      2  C   UNK d   0     -13.984  -6.905   1.032  0.00  0.00     0.139 C 
ENDROOT
BRANCH   2   3
ATOM      3  O   UNK d   0     -13.708  -5.708   1.649  0.00  0.00    -0.776 OA
ATOM      4  H   UNK d   0     -13.087  -5.022   1.215  0.00  0.00     0.167 HD
ENDBRANCH   2   3
BRANCH   2   5
ATOM      5  C   UNK d   0     -14.339  -6.946  -0.415  0.00  0.00     0.115 C 
BRANCH   5   6
ATOM      6  C   UNK d   0     -15.483  -7.897  -0.641  0.00  0.00     0.052 C 
BRANCH   6   7
ATOM      7  C   UNK d   0     -16.821  -7.198  -0.672  0.00  0.00    -0.020 A 
ATOM      8  C   UNK d   0     -17.427  -6.680  -1.710  0.00  0.00    -0.011 A 
ATOM      9  C   UNK d   0     -18.683  -6.109  -1.254  0.00  0.00     0.067 A 
ATOM     10  C   UNK d   0     -19.770  -5.449  -1.847  0.00  0.00     0.062 C 
ATOM     11  N   UNK d   0     -18.759  -6.320   0.077  0.00  0.00    -0.248 NA
ATOM     12  C   UNK d   0     -21.030  -5.216  -1.284  0.00  0.00     0.041 A 
ATOM     13  N   UNK d   0     -21.390  -4.817  -0.050  0.00  0.00    -0.355 N 
ATOM     14  C   UNK d   0     -22.178  -5.471  -2.057  0.00  0.00    -0.022 A 
ATOM     15  C   UNK d   0     -22.736  -4.819  -0.017  0.00  0.00     0.042 A 
ATOM     16  H   UNK d   0     -20.706  -4.520   0.776  0.00  0.00     0.166 HD
ATOM     17  C   UNK d   0     -23.624  -4.486   1.025  0.00  0.00     0.062 C 
ATOM     18  C   UNK d   0     -23.266  -5.224  -1.257  0.00  0.00    -0.013 A 
ATOM     19  C   UNK d   0     -23.573  -4.841   2.349  0.00  0.00     0.067 A 
ATOM     20  N   UNK d   0     -22.445  -5.411   2.779  0.00  0.00    -0.248 NA
ATOM     21  C   UNK d   0     -24.478  -4.773   3.484  0.00  0.00    -0.011 A 
ATOM     22  C   UNK d   0     -22.547  -5.723   4.113  0.00  0.00     0.066 A 
ATOM     23  C   UNK d   0     -21.426  -6.290   4.700  0.00  0.00     0.062 C 
ATOM     24  C   UNK d   0     -23.873  -5.295   4.512  0.00  0.00    -0.020 A 
ATOM     25  C   UNK d   0     -20.165  -6.503   4.121  0.00  0.00     0.041 A 
ATOM     26  N   UNK d   0     -19.808  -6.915   2.899  0.00  0.00    -0.355 N 
ATOM     27  C   UNK d   0     -19.014  -6.243   4.896  0.00  0.00    -0.022 A 
ATOM     28  C   UNK d   0     -18.466  -6.922   2.866  0.00  0.00     0.042 A 
ATOM     29  H   UNK d   0     -20.496  -7.223   2.074  0.00  0.00     0.166 HD
ATOM     30  C   UNK d   0     -17.569  -7.260   1.840  0.00  0.00     0.062 C 
ATOM     31  C   UNK d   0     -17.934  -6.504   4.109  0.00  0.00    -0.013 A 
ATOM     32  C   UNK d   0     -17.669  -6.971   0.488  0.00  0.00     0.066 A 
BRANCH   8  33
ATOM     33  C   UNK d   0     -16.939  -6.661  -3.102  0.00  0.00     0.151 C 
BRANCH  33  34
ATOM     34  C   UNK d   0     -16.478  -5.327  -3.527  0.00  0.00     0.143 C 
ATOM     35  O   UNK d   0     -16.668  -4.928  -4.685  0.00  0.00    -0.650 OA
BRANCH  34  36
ATOM     36  O   UNK d   0     -15.828  -4.517  -2.624  0.00  0.00    -0.776 OA
ATOM     37  H   UNK d   0     -15.285  -4.914  -1.846  0.00  0.00     0.167 HD
ENDBRANCH  34  36
ENDBRANCH  33  34
ENDBRANCH   8  33
BRANCH  31  38
ATOM     38  C   UNK d   0     -16.484  -6.355   4.507  0.00  0.00     0.151 C 
BRANCH  38  39
ATOM     39  C   UNK d   0     -16.008  -4.993   4.393  0.00  0.00     0.143 C 
ATOM     40  O   UNK d   0     -15.765  -4.287   5.388  0.00  0.00    -0.650 OA
BRANCH  39  41
ATOM     41  O   UNK d   0     -15.809  -4.439   3.128  0.00  0.00    -0.776 OA
ATOM     42  H   UNK d   0     -14.839  -4.271   2.846  0.00  0.00     0.167 HD
ENDBRANCH  39  41
ENDBRANCH  38  39
ENDBRANCH  31  38
BRANCH  27  43
ATOM     43  C   UNK d   0     -18.906  -5.768   6.323  0.00  0.00     0.052 C 
BRANCH  43  44
ATOM     44  C   UNK d   0     -18.900  -6.883   7.318  0.00  0.00     0.115 C 
BRANCH  44  45
ATOM     45  C   UNK d   0     -17.573  -6.846   7.988  0.00  0.00     0.139 C 
ATOM     46  O   UNK d   0     -17.173  -7.887   8.565  0.00  0.00    -0.650 OA
BRANCH  45  47
ATOM     47  O   UNK d   0     -16.770  -5.726   7.994  0.00  0.00    -0.776 OA
ATOM     48  H   UNK d   0     -16.482  -5.238   7.131  0.00  0.00     0.167 HD
ENDBRANCH  45  47
ENDBRANCH  44  45
ENDBRANCH  43  44
ENDBRANCH  27  43
BRANCH  24  49
ATOM     49  C   UNK d   0     -24.413  -5.395   5.879  0.00  0.00     0.052 C 
BRANCH  49  50
ATOM     50  C   UNK d   0     -24.708  -6.833   6.222  0.00  0.00     0.115 C 
BRANCH  50  51
ATOM     51  C   UNK d   0     -25.176  -7.111   7.573  0.00  0.00     0.139 C 
ATOM     52  O   UNK d   0     -25.092  -6.275   8.504  0.00  0.00    -0.650 OA
BRANCH  51  53
ATOM     53  O   UNK d   0     -25.737  -8.345   7.864  0.00  0.00    -0.776 OA
ATOM     54  H   UNK d   0     -26.640  -8.559   7.479  0.00  0.00     0.167 HD
ENDBRANCH  51  53
ENDBRANCH  50  51
ENDBRANCH  49  50
ENDBRANCH  24  49
BRANCH  21  55
ATOM     55  C   UNK d   0     -25.851  -4.190   3.425  0.00  0.00     0.151 C 
BRANCH  55  56
ATOM     56  C   UNK d   0     -25.832  -2.723   3.528  0.00  0.00     0.143 C 
ATOM     57  O   UNK d   0     -25.465  -2.123   4.558  0.00  0.00    -0.650 OA
BRANCH  56  58
ATOM     58  O   UNK d   0     -26.245  -1.988   2.418  0.00  0.00    -0.776 OA
ATOM     59  H   UNK d   0     -27.266  -2.002   2.241  0.00  0.00     0.167 HD
ENDBRANCH  56  58
ENDBRANCH  55  56
ENDBRANCH  21  55
BRANCH  18  60
ATOM     60  C   UNK d   0     -24.705  -5.379  -1.683  0.00  0.00     0.151 C 
BRANCH  60  61
ATOM     61  C   UNK d   0     -25.229  -6.526  -0.925  0.00  0.00     0.143 C 
ATOM     62  O   UNK d   0     -24.720  -7.642  -0.821  0.00  0.00    -0.650 OA
BRANCH  61  63
ATOM     63  O   UNK d   0     -26.452  -6.294  -0.250  0.00  0.00    -0.776 OA
ATOM     64  H   UNK d   0     -26.595  -5.460   0.291  0.00  0.00     0.167 HD
ENDBRANCH  61  63
ENDBRANCH  60  61
ENDBRANCH  18  60
BRANCH  14  65
ATOM     65  C   UNK d   0     -22.323  -5.832  -3.508  0.00  0.00     0.052 C 
BRANCH  65  66
ATOM     66  C   UNK d   0     -22.113  -4.675  -4.419  0.00  0.00     0.115 C 
BRANCH  66  67
ATOM     67  C   UNK d   0     -21.018  -4.688  -5.346  0.00  0.00     0.139 C 
ATOM     68  O   UNK d   0     -21.279  -4.722  -6.605  0.00  0.00    -0.650 OA
BRANCH  67  69
ATOM     69  O   UNK d   0     -19.654  -4.670  -5.056  0.00  0.00    -0.776 OA
ATOM     70  H   UNK d   0     -19.306  -3.818  -4.593  0.00  0.00     0.167 HD
ENDBRANCH  67  69
ENDBRANCH  66  67
ENDBRANCH  65  66
ENDBRANCH  14  65
ENDBRANCH   6   7
ENDBRANCH   5   6
ENDBRANCH   2   5
TORSDOF 28
ENDMDL
MODEL 19
REMARK VINA RESULT:      -9.0      3.260      9.626
REMARK  28 active torsions:
REMARK  status: ('A' for Active; 'I' for Inactive)
REMARK    1  A    between atoms: C_2  and  O_3 
REMARK    2  A    between atoms: C_2  and  C_4 
REMARK    3  A    between atoms: C_4  and  C_5 
REMARK    4  A    between atoms: C_5  and  C_6 
REMARK    5  A    between atoms: C_7  and  C_8 
REMARK    6  A    between atoms: C_8  and  C_9 
REMARK    7  A    between atoms: C_9  and  O_11 
REMARK    8  A    between atoms: C_28  and  C_29 
REMARK    9  A    between atoms: C_29  and  C_30 
REMARK   10  A    between atoms: C_30  and  O_32 
REMARK   11  A    between atoms: C_33  and  C_34 
REMARK   12  A    between atoms: C_34  and  C_35 
REMARK   13  A    between atoms: C_35  and  C_36 
REMARK   14  A    between atoms: C_36  and  O_38 
REMARK   15  A    between atoms: C_39  and  C_40 
REMARK   16  A    between atoms: C_40  and  C_41 
REMARK   17  A    between atoms: C_41  and  C_42 
REMARK   18  A    between atoms: C_42  and  O_44 
REMARK   19  A    between atoms: C_45  and  C_46 
REMARK   20  A    between atoms: C_46  and  C_47 
REMARK   21  A    between atoms: C_47  and  O_49 
REMARK   22  A    between atoms: C_50  and  C_51 
REMARK   23  A    between atoms: C_51  and  C_52 
REMARK   24  A    between atoms: C_52  and  O_54 
REMARK   25  A    between atoms: C_55  and  C_56 
REMARK   26  A    between atoms: C_56  and  C_57 
REMARK   27  A    between atoms: C_57  and  C_58 
REMARK   28  A    between atoms: C_58  and  O_60 
ROOT
ATOM      1  O   UNK d   0     -21.795  -6.488  -2.155  0.00  0.00    -0.650 OA
ATOM      2  C   UNK d   0     -21.217  -5.810  -1.276  0.00  0.00     0.139 C 
ENDROOT
BRANCH   2   3
ATOM      3  O   UNK d   0     -20.377  -4.791  -1.654  0.00  0.00    -0.776 OA
ATOM      4  H   UNK d   0     -20.706  -3.824  -1.695  0.00  0.00     0.167 HD
ENDBRANCH   2   3
BRANCH   2   5
ATOM      5  C   UNK d   0     -21.441  -6.110   0.167  0.00  0.00     0.115 C 
BRANCH   5   6
ATOM      6  C   UNK d   0     -22.809  -5.645   0.587  0.00  0.00     0.052 C 
BRANCH   6   7
ATOM      7  C   UNK d   0     -22.926  -5.457   2.080  0.00  0.00    -0.020 A 
ATOM      8  C   UNK d   0     -23.950  -4.991   2.748  0.00  0.00    -0.011 A 
ATOM      9  C   UNK d   0     -23.597  -4.986   4.158  0.00  0.00     0.067 A 
ATOM     10  C   UNK d   0     -24.233  -4.639   5.360  0.00  0.00     0.062 C 
ATOM     11  N   UNK d   0     -22.337  -5.460   4.257  0.00  0.00    -0.248 NA
ATOM     12  C   UNK d   0     -23.828  -4.967   6.659  0.00  0.00     0.041 A 
ATOM     13  N   UNK d   0     -22.611  -4.959   7.236  0.00  0.00    -0.355 N 
ATOM     14  C   UNK d   0     -24.786  -5.449   7.569  0.00  0.00    -0.022 A 
ATOM     15  C   UNK d   0     -22.771  -5.430   8.487  0.00  0.00     0.042 A 
ATOM     16  H   UNK d   0     -21.662  -4.608   6.775  0.00  0.00     0.166 HD
ATOM     17  C   UNK d   0     -21.829  -5.629   9.516  0.00  0.00     0.062 C 
ATOM     18  C   UNK d   0     -24.121  -5.749   8.732  0.00  0.00    -0.013 A 
ATOM     19  C   UNK d   0     -20.579  -6.190   9.444  0.00  0.00     0.067 A 
ATOM     20  N   UNK d   0     -20.083  -6.408   8.224  0.00  0.00    -0.248 NA
ATOM     21  C   UNK d   0     -19.587  -6.655  10.399  0.00  0.00    -0.011 A 
ATOM     22  C   UNK d   0     -18.840  -6.984   8.311  0.00  0.00     0.066 A 
ATOM     23  C   UNK d   0     -18.190  -7.232   7.111  0.00  0.00     0.062 C 
ATOM     24  C   UNK d   0     -18.573  -7.123   9.729  0.00  0.00    -0.020 A 
ATOM     25  C   UNK d   0     -18.609  -6.883   5.817  0.00  0.00     0.041 A 
ATOM     26  N   UNK d   0     -19.815  -6.906   5.239  0.00  0.00    -0.355 N 
ATOM     27  C   UNK d   0     -17.648  -6.395   4.905  0.00  0.00    -0.022 A 
ATOM     28  C   UNK d   0     -19.657  -6.444   3.988  0.00  0.00     0.042 A 
ATOM     29  H   UNK d   0     -20.767  -7.268   5.700  0.00  0.00     0.166 HD
ATOM     30  C   UNK d   0     -20.584  -6.250   2.952  0.00  0.00     0.062 C 
ATOM     31  C   UNK d   0     -18.302  -6.114   3.746  0.00  0.00    -0.013 A 
ATOM     32  C   UNK d   0     -21.877  -5.762   3.042  0.00  0.00     0.066 A 
BRANCH   8  33
ATOM     33  C   UNK d   0     -25.239  -4.540   2.191  0.00  0.00     0.151 C 
BRANCH  33  34
ATOM     34  C   UNK d   0     -25.393  -3.075   2.223  0.00  0.00     0.143 C 
ATOM     35  O   UNK d   0     -24.832  -2.357   1.382  0.00  0.00    -0.650 OA
BRANCH  34  36
ATOM     36  O   UNK d   0     -26.170  -2.498   3.201  0.00  0.00    -0.776 OA
ATOM     37  H   UNK d   0     -26.751  -1.672   3.004  0.00  0.00     0.167 HD
ENDBRANCH  34  36
ENDBRANCH  33  34
ENDBRANCH   8  33
BRANCH  31  38
ATOM     38  C   UNK d   0     -17.684  -5.554   2.486  0.00  0.00     0.151 C 
BRANCH  38  39
ATOM     39  C   UNK d   0     -17.017  -6.563   1.691  0.00  0.00     0.143 C 
ATOM     40  O   UNK d   0     -17.535  -7.666   1.445  0.00  0.00    -0.650 OA
BRANCH  39  41
ATOM     41  O   UNK d   0     -15.748  -6.302   1.176  0.00  0.00    -0.776 OA
ATOM     42  H   UNK d   0     -15.530  -6.706   0.260  0.00  0.00     0.167 HD
ENDBRANCH  39  41
ENDBRANCH  38  39
ENDBRANCH  31  38
BRANCH  27  43
ATOM     43  C   UNK d   0     -16.164  -6.194   5.092  0.00  0.00     0.052 C 
BRANCH  43  44
ATOM     44  C   UNK d   0     -15.746  -4.762   5.001  0.00  0.00     0.115 C 
BRANCH  44  45
ATOM     45  C   UNK d   0     -14.575  -4.719   4.088  0.00  0.00     0.139 C 
ATOM     46  O   UNK d   0     -13.557  -5.385   4.400  0.00  0.00    -0.650 OA
BRANCH  45  47
ATOM     47  O   UNK d   0     -14.564  -3.988   2.920  0.00  0.00    -0.776 OA
ATOM     48  H   UNK d   0     -14.126  -4.330   2.049  0.00  0.00     0.167 HD
ENDBRANCH  45  47
ENDBRANCH  44  45
ENDBRANCH  43  44
ENDBRANCH  27  43
BRANCH  24  49
ATOM     49  C   UNK d   0     -17.328  -7.662  10.302  0.00  0.00     0.052 C 
BRANCH  49  50
ATOM     50  C   UNK d   0     -17.230  -9.143  10.043  0.00  0.00     0.115 C 
BRANCH  50  51
ATOM     51  C   UNK d   0     -16.474  -9.937  11.002  0.00  0.00     0.139 C 
ATOM     52  O   UNK d   0     -15.247  -9.770  11.201  0.00  0.00    -0.650 OA
BRANCH  51  53
ATOM     53  O   UNK d   0     -17.116 -10.924  11.733  0.00  0.00    -0.776 OA
ATOM     54  H   UNK d   0     -17.216 -11.834  11.319  0.00  0.00     0.167 HD
ENDBRANCH  51  53
ENDBRANCH  50  51
ENDBRANCH  49  50
ENDBRANCH  24  49
BRANCH  21  55
ATOM     55  C   UNK d   0     -19.754  -6.580  11.880  0.00  0.00     0.151 C 
BRANCH  55  56
ATOM     56  C   UNK d   0     -20.791  -5.613  12.270  0.00  0.00     0.143 C 
ATOM     57  O   UNK d   0     -21.936  -5.956  12.626  0.00  0.00    -0.650 OA
BRANCH  56  58
ATOM     58  O   UNK d   0     -20.461  -4.259  12.235  0.00  0.00    -0.776 OA
ATOM     59  H   UNK d   0     -20.347  -3.862  11.284  0.00  0.00     0.167 HD
ENDBRANCH  56  58
ENDBRANCH  55  56
ENDBRANCH  21  55
BRANCH  18  60
ATOM     60  C   UNK d   0     -24.766  -6.305   9.978  0.00  0.00     0.151 C 
BRANCH  60  61
ATOM     61  C   UNK d   0     -24.378  -7.723  10.034  0.00  0.00     0.143 C 
ATOM     62  O   UNK d   0     -24.664  -8.604   9.223  0.00  0.00    -0.650 OA
BRANCH  61  63
ATOM     63  O   UNK d   0     -23.590  -8.088  11.153  0.00  0.00    -0.776 OA
ATOM     64  H   UNK d   0     -23.281  -7.399  11.816  0.00  0.00     0.167 HD
ENDBRANCH  61  63
ENDBRANCH  60  61
ENDBRANCH  18  60
BRANCH  14  65
ATOM     65  C   UNK d   0     -26.280  -5.553   7.458  0.00  0.00     0.052 C 
BRANCH  65  66
ATOM     66  C   UNK d   0     -26.975  -4.264   7.720  0.00  0.00     0.115 C 
BRANCH  66  67
ATOM     67  C   UNK d   0     -27.584  -3.550   6.634  0.00  0.00     0.139 C 
ATOM     68  O   UNK d   0     -26.956  -2.548   6.129  0.00  0.00    -0.650 OA
BRANCH  67  69
ATOM     69  O   UNK d   0     -28.814  -3.806   6.028  0.00  0.00    -0.776 OA
ATOM     70  H   UNK d   0     -29.065  -3.187   5.244  0.00  0.00     0.167 HD
ENDBRANCH  67  69
ENDBRANCH  66  67
ENDBRANCH  65  66
ENDBRANCH  14  65
ENDBRANCH   6   7
ENDBRANCH   5   6
ENDBRANCH   2   5
TORSDOF 28
ENDMDL
MODEL 20
REMARK VINA RESULT:      -9.0      5.602     11.497
REMARK  28 active torsions:
REMARK  status: ('A' for Active; 'I' for Inactive)
REMARK    1  A    between atoms: C_2  and  O_3 
REMARK    2  A    between atoms: C_2  and  C_4 
REMARK    3  A    between atoms: C_4  and  C_5 
REMARK    4  A    between atoms: C_5  and  C_6 
REMARK    5  A    between atoms: C_7  and  C_8 
REMARK    6  A    between atoms: C_8  and  C_9 
REMARK    7  A    between atoms: C_9  and  O_11 
REMARK    8  A    between atoms: C_28  and  C_29 
REMARK    9  A    between atoms: C_29  and  C_30 
REMARK   10  A    between atoms: C_30  and  O_32 
REMARK   11  A    between atoms: C_33  and  C_34 
REMARK   12  A    between atoms: C_34  and  C_35 
REMARK   13  A    between atoms: C_35  and  C_36 
REMARK   14  A    between atoms: C_36  and  O_38 
REMARK   15  A    between atoms: C_39  and  C_40 
REMARK   16  A    between atoms: C_40  and  C_41 
REMARK   17  A    between atoms: C_41  and  C_42 
REMARK   18  A    between atoms: C_42  and  O_44 
REMARK   19  A    between atoms: C_45  and  C_46 
REMARK   20  A    between atoms: C_46  and  C_47 
REMARK   21  A    between atoms: C_47  and  O_49 
REMARK   22  A    between atoms: C_50  and  C_51 
REMARK   23  A    between atoms: C_51  and  C_52 
REMARK   24  A    between atoms: C_52  and  O_54 
REMARK   25  A    between atoms: C_55  and  C_56 
REMARK   26  A    between atoms: C_56  and  C_57 
REMARK   27  A    between atoms: C_57  and  C_58 
REMARK   28  A    between atoms: C_58  and  O_60 
ROOT
ATOM      1  O   UNK d   0     -27.432   5.416   1.546  0.00  0.00    -0.650 OA
ATOM      2  C   UNK d   0     -26.280   4.961   1.372  0.00  0.00     0.139 C 
ENDROOT
BRANCH   2   3
ATOM      3  O   UNK d   0     -25.379   5.679   0.623  0.00  0.00    -0.776 OA
ATOM      4  H   UNK d   0     -25.681   6.468   0.048  0.00  0.00     0.167 HD
ENDBRANCH   2   3
BRANCH   2   5
ATOM      5  C   UNK d   0     -25.892   3.653   1.973  0.00  0.00     0.115 C 
BRANCH   5   6
ATOM      6  C   UNK d   0     -27.105   2.777   2.130  0.00  0.00     0.052 C 
BRANCH   6   7
ATOM      7  C   UNK d   0     -26.753   1.312   2.232  0.00  0.00    -0.020 A 
ATOM      8  C   UNK d   0     -26.640   0.448   1.256  0.00  0.00    -0.011 A 
ATOM      9  C   UNK d   0     -26.296  -0.839   1.837  0.00  0.00     0.067 A 
ATOM     10  C   UNK d   0     -26.022  -2.128   1.354  0.00  0.00     0.062 C 
ATOM     11  N   UNK d   0     -26.227  -0.668   3.174  0.00  0.00    -0.248 NA
ATOM     12  C   UNK d   0     -25.433  -3.187   2.053  0.00  0.00     0.041 A 
ATOM     13  N   UNK d   0     -25.627  -3.638   3.307  0.00  0.00    -0.355 N 
ATOM     14  C   UNK d   0     -24.412  -3.929   1.431  0.00  0.00    -0.022 A 
ATOM     15  C   UNK d   0     -24.750  -4.642   3.499  0.00  0.00     0.042 A 
ATOM     16  H   UNK d   0     -26.381  -3.267   4.035  0.00  0.00     0.166 HD
ATOM     17  C   UNK d   0     -24.529  -5.459   4.626  0.00  0.00     0.062 C 
ATOM     18  C   UNK d   0     -23.971  -4.854   2.345  0.00  0.00    -0.013 A 
ATOM     19  C   UNK d   0     -24.434  -5.099   5.946  0.00  0.00     0.067 A 
ATOM     20  N   UNK d   0     -24.786  -3.850   6.259  0.00  0.00    -0.248 NA
ATOM     21  C   UNK d   0     -24.012  -5.746   7.177  0.00  0.00    -0.011 A 
ATOM     22  C   UNK d   0     -24.624  -3.632   7.605  0.00  0.00     0.066 A 
ATOM     23  C   UNK d   0     -24.990  -2.380   8.076  0.00  0.00     0.062 C 
ATOM     24  C   UNK d   0     -24.122  -4.881   8.144  0.00  0.00    -0.020 A 
ATOM     25  C   UNK d   0     -25.592  -1.334   7.360  0.00  0.00     0.041 A 
ATOM     26  N   UNK d   0     -25.389  -0.875   6.119  0.00  0.00    -0.355 N 
ATOM     27  C   UNK d   0     -26.619  -0.592   7.984  0.00  0.00    -0.022 A 
ATOM     28  C   UNK d   0     -26.256   0.132   5.928  0.00  0.00     0.042 A 
ATOM     29  H   UNK d   0     -24.623  -1.242   5.392  0.00  0.00     0.166 HD
ATOM     30  C   UNK d   0     -26.480   0.958   4.816  0.00  0.00     0.062 C 
ATOM     31  C   UNK d   0     -27.045   0.337   7.085  0.00  0.00    -0.013 A 
ATOM     32  C   UNK d   0     -26.491   0.604   3.476  0.00  0.00     0.066 A 
BRANCH   8  33
ATOM     33  C   UNK d   0     -26.827   0.710  -0.184  0.00  0.00     0.151 C 
BRANCH  33  34
ATOM     34  C   UNK d   0     -27.678  -0.299  -0.840  0.00  0.00     0.143 C 
ATOM     35  O   UNK d   0     -27.182  -1.309  -1.360  0.00  0.00    -0.650 OA
BRANCH  34  36
ATOM     36  O   UNK d   0     -29.041  -0.113  -0.877  0.00  0.00    -0.776 OA
ATOM     37  H   UNK d   0     -29.612  -0.501  -1.640  0.00  0.00     0.167 HD
ENDBRANCH  34  36
ENDBRANCH  33  34
ENDBRANCH   8  33
BRANCH  31  38
ATOM     38  C   UNK d   0     -28.144   1.350   7.303  0.00  0.00     0.151 C 
BRANCH  38  39
ATOM     39  C   UNK d   0     -29.449   0.854   6.921  0.00  0.00     0.143 C 
ATOM     40  O   UNK d   0     -30.504   1.378   7.322  0.00  0.00    -0.650 OA
BRANCH  39  41
ATOM     41  O   UNK d   0     -29.543  -0.248   6.072  0.00  0.00    -0.776 OA
ATOM     42  H   UNK d   0     -29.111  -0.157   5.147  0.00  0.00     0.167 HD
ENDBRANCH  39  41
ENDBRANCH  38  39
ENDBRANCH  31  38
BRANCH  27  43
ATOM     43  C   UNK d   0     -27.194  -0.731   9.371  0.00  0.00     0.052 C 
BRANCH  43  44
ATOM     44  C   UNK d   0     -28.478  -1.496   9.405  0.00  0.00     0.115 C 
BRANCH  44  45
ATOM     45  C   UNK d   0     -28.162  -2.829   9.980  0.00  0.00     0.139 C 
ATOM     46  O   UNK d   0     -28.098  -3.811   9.199  0.00  0.00    -0.650 OA
BRANCH  45  47
ATOM     47  O   UNK d   0     -27.933  -3.028  11.325  0.00  0.00    -0.776 OA
ATOM     48  H   UNK d   0     -26.986  -3.030  11.737  0.00  0.00     0.167 HD
ENDBRANCH  45  47
ENDBRANCH  44  45
ENDBRANCH  43  44
ENDBRANCH  27  43
BRANCH  24  49
ATOM     49  C   UNK d   0     -23.836  -5.129   9.567  0.00  0.00     0.052 C 
BRANCH  49  50
ATOM     50  C   UNK d   0     -25.065  -4.871  10.402  0.00  0.00     0.115 C 
BRANCH  50  51
ATOM     51  C   UNK d   0     -25.803  -6.034  10.876  0.00  0.00     0.139 C 
ATOM     52  O   UNK d   0     -25.293  -7.178  10.941  0.00  0.00    -0.650 OA
BRANCH  51  53
ATOM     53  O   UNK d   0     -27.123  -5.893  11.276  0.00  0.00    -0.776 OA
ATOM     54  H   UNK d   0     -27.307  -5.675  12.239  0.00  0.00     0.167 HD
ENDBRANCH  51  53
ENDBRANCH  50  51
ENDBRANCH  49  50
ENDBRANCH  24  49
BRANCH  21  55
ATOM     55  C   UNK d   0     -23.549  -7.163   7.260  0.00  0.00     0.151 C 
BRANCH  55  56
ATOM     56  C   UNK d   0     -24.662  -8.095   7.492  0.00  0.00     0.143 C 
ATOM     57  O   UNK d   0     -25.531  -8.336   6.631  0.00  0.00    -0.650 OA
BRANCH  56  58
ATOM     58  O   UNK d   0     -24.733  -8.727   8.732  0.00  0.00    -0.776 OA
ATOM     59  H   UNK d   0     -24.857  -9.754   8.692  0.00  0.00     0.167 HD
ENDBRANCH  56  58
ENDBRANCH  55  56
ENDBRANCH  21  55
BRANCH  18  60
ATOM     60  C   UNK d   0     -22.872  -5.857   2.097  0.00  0.00     0.151 C 
BRANCH  60  61
ATOM     61  C   UNK d   0     -21.714  -5.386   2.871  0.00  0.00     0.143 C 
ATOM     62  O   UNK d   0     -21.198  -4.268   2.829  0.00  0.00    -0.650 OA
BRANCH  61  63
ATOM     63  O   UNK d   0     -21.149  -6.339   3.752  0.00  0.00    -0.776 OA
ATOM     64  H   UNK d   0     -21.690  -6.741   4.497  0.00  0.00     0.167 HD
ENDBRANCH  61  63
ENDBRANCH  60  61
ENDBRANCH  18  60
BRANCH  14  65
ATOM     65  C   UNK d   0     -23.896  -3.896   0.020  0.00  0.00     0.052 C 
BRANCH  65  66
ATOM     66  C   UNK d   0     -24.709  -4.717  -0.916  0.00  0.00     0.115 C 
BRANCH  66  67
ATOM     67  C   UNK d   0     -24.385  -6.102  -1.113  0.00  0.00     0.139 C 
ATOM     68  O   UNK d   0     -23.480  -6.404  -1.976  0.00  0.00    -0.650 OA
BRANCH  67  69
ATOM     69  O   UNK d   0     -24.941  -7.208  -0.471  0.00  0.00    -0.776 OA
ATOM     70  H   UNK d   0     -24.329  -7.689   0.203  0.00  0.00     0.167 HD
ENDBRANCH  67  69
ENDBRANCH  66  67
ENDBRANCH  65  66
ENDBRANCH  14  65
ENDBRANCH   6   7
ENDBRANCH   5   6
ENDBRANCH   2   5
TORSDOF 28
ENDMDL
