MODEL 1
REMARK VINA RESULT:     -10.3      0.000      0.000
REMARK  16 active torsions:
REMARK  status: ('A' for Active; 'I' for Inactive)
REMARK    1  A    between atoms: C_6  and  C_7 
REMARK    2  A    between atoms: C_7  and  C_8 
REMARK    3  A    between atoms: C_8  and  C_9 
REMARK    4  A    between atoms: C_9  and  O_11 
REMARK    5  A    between atoms: C_16  and  C_17 
REMARK    6  A    between atoms: C_17  and  C_18 
REMARK    7  A    between atoms: C_18  and  C_19 
REMARK    8  A    between atoms: C_19  and  O_21 
REMARK    9  A    between atoms: C_28  and  C_29 
REMARK   10  A    between atoms: C_29  and  C_30 
REMARK   11  A    between atoms: C_30  and  C_31 
REMARK   12  A    between atoms: C_31  and  O_33 
REMARK   13  A    between atoms: C_42  and  C_43 
REMARK   14  A    between atoms: C_43  and  C_44 
REMARK   15  A    between atoms: C_44  and  C_45 
REMARK   16  A    between atoms: C_45  and  O_47 
ROOT
HETATM    1  C   UNK     0     -11.150  -2.677  19.049  0.00  0.00     0.051 C 
HETATM    2  C   UNK     0     -10.799  -3.903  18.231  0.00  0.00    -0.031 A 
HETATM    3  C   UNK     0      -9.561  -4.338  17.785  0.00  0.00     0.021 A 
HETATM    4  N   UNK     0      -9.726  -5.469  17.059  0.00  0.00    -0.361 N 
HETATM    5  C   UNK     0     -11.041  -5.769  17.040  0.00  0.00     0.022 A 
HETATM    6  C   UNK     0     -11.742  -4.808  17.761  0.00  0.00    -0.027 A 
HETATM    7  C   UNK     0     -11.738  -6.960  16.459  0.00  0.00     0.115 C 
HETATM    8  C   UNK     0     -11.079  -8.310  16.682  0.00  0.00     0.021 A 
HETATM    9  N   UNK     0     -10.401  -8.743  17.756  0.00  0.00    -0.361 N 
HETATM   10  C   UNK     0      -9.915  -9.971  17.478  0.00  0.00     0.022 A 
HETATM   11  C   UNK     0     -10.298 -10.343  16.193  0.00  0.00    -0.027 A 
HETATM   12  C   UNK     0     -11.032  -9.302  15.685  0.00  0.00    -0.031 A 
HETATM   13  C   UNK     0     -11.661  -9.264  14.311  0.00  0.00     0.051 C 
HETATM   14  C   UNK     0      -9.029 -10.817  18.388  0.00  0.00     0.115 C 
HETATM   15  C   UNK     0      -7.700 -10.164  18.733  0.00  0.00     0.021 A 
HETATM   16  N   UNK     0      -7.500  -8.981  19.343  0.00  0.00    -0.361 N 
HETATM   17  C   UNK     0      -6.189  -8.732  19.399  0.00  0.00     0.022 A 
HETATM   18  C   UNK     0      -5.502  -9.810  18.806  0.00  0.00    -0.027 A 
HETATM   19  C   UNK     0      -6.459 -10.701  18.394  0.00  0.00    -0.031 A 
HETATM   20  C   UNK     0      -6.146 -12.029  17.731  0.00  0.00     0.051 C 
HETATM   21  C   UNK     0      -5.452  -7.518  19.915  0.00  0.00     0.115 C 
HETATM   22  C   UNK     0      -6.116  -6.172  19.740  0.00  0.00     0.022 A 
HETATM   23  N   UNK     0      -6.801  -5.716  18.683  0.00  0.00    -0.361 N 
HETATM   24  C   UNK     0      -7.341  -4.525  19.011  0.00  0.00     0.021 A 
HETATM   25  C   UNK     0      -6.988  -4.202  20.307  0.00  0.00    -0.031 A 
HETATM   26  C   UNK     0      -7.317  -2.956  21.102  0.00  0.00     0.051 C 
HETATM   27  C   UNK     0      -6.203  -5.241  20.794  0.00  0.00    -0.027 A 
HETATM   28  C   UNK     0      -8.275  -3.666  18.175  0.00  0.00     0.115 C 
HETATM   29  H   UNK     0      -8.917  -6.026  16.532  0.00  0.00     0.165 HD
HETATM   30  H   UNK     0     -10.307  -8.205  18.731  0.00  0.00     0.165 HD
HETATM   31  H   UNK     0      -8.297  -8.329  19.786  0.00  0.00     0.165 HD
HETATM   32  H   UNK     0      -6.873  -6.210  17.680  0.00  0.00     0.165 HD
ENDROOT
BRANCH   6  33
HETATM   33  C   UNK     0     -13.220  -4.685  18.032  0.00  0.00     0.051 C 
BRANCH  33  34
HETATM   34  C   UNK     0     -13.959  -4.262  16.785  0.00  0.00     0.114 C 
BRANCH  34  35
HETATM   35  C   UNK     0     -15.088  -5.217  16.590  0.00  0.00     0.139 C 
HETATM   36  O   UNK     0     -15.825  -5.131  15.564  0.00  0.00    -0.650 OA
BRANCH  35  37
HETATM   37  O   UNK     0     -15.382  -6.226  17.499  0.00  0.00    -0.776 OA
HETATM   38  H   UNK     0     -15.310  -7.201  17.257  0.00  0.00     0.167 HD
ENDBRANCH  35  37
ENDBRANCH  34  35
ENDBRANCH  33  34
ENDBRANCH   6  33
BRANCH  27  39
HETATM   39  C   UNK     0      -5.572  -5.217  22.142  0.00  0.00     0.051 C 
BRANCH  39  40
HETATM   40  C   UNK     0      -4.224  -4.664  22.268  0.00  0.00     0.114 C 
BRANCH  40  41
HETATM   41  C   UNK     0      -3.902  -3.628  23.223  0.00  0.00     0.139 C 
HETATM   42  O   UNK     0      -3.470  -2.513  22.902  0.00  0.00    -0.650 OA
BRANCH  41  43
HETATM   43  O   UNK     0      -4.085  -3.887  24.611  0.00  0.00    -0.776 OA
HETATM   44  H   UNK     0      -3.353  -3.517  25.206  0.00  0.00     0.167 HD
ENDBRANCH  41  43
ENDBRANCH  40  41
ENDBRANCH  39  40
ENDBRANCH  27  39
BRANCH  11  45
HETATM   45  C   UNK     0     -10.000 -11.620  15.454  0.00  0.00     0.051 C 
BRANCH  45  46
HETATM   46  C   UNK     0      -8.690 -11.624  14.754  0.00  0.00     0.114 C 
BRANCH  46  47
HETATM   47  C   UNK     0      -8.870 -12.383  13.483  0.00  0.00     0.139 C 
HETATM   48  O   UNK     0      -9.668 -11.948  12.642  0.00  0.00    -0.650 OA
BRANCH  47  49
HETATM   49  O   UNK     0      -8.169 -13.539  13.250  0.00  0.00    -0.776 OA
HETATM   50  H   UNK     0      -8.630 -14.455  13.198  0.00  0.00     0.167 HD
ENDBRANCH  47  49
ENDBRANCH  46  47
ENDBRANCH  45  46
ENDBRANCH  11  45
BRANCH  18  51
HETATM   51  C   UNK     0      -4.014  -9.991  18.659  0.00  0.00     0.051 C 
BRANCH  51  52
HETATM   52  C   UNK     0      -3.558 -10.781  19.876  0.00  0.00     0.114 C 
BRANCH  52  53
HETATM   53  C   UNK     0      -3.165 -12.159  19.522  0.00  0.00     0.139 C 
HETATM   54  O   UNK     0      -2.616 -12.388  18.433  0.00  0.00    -0.650 OA
BRANCH  53  55
HETATM   55  O   UNK     0      -3.415 -13.184  20.402  0.00  0.00    -0.776 OA
HETATM   56  H   UNK     0      -3.500 -13.100  21.387  0.00  0.00     0.167 HD
ENDBRANCH  53  55
ENDBRANCH  52  53
ENDBRANCH  51  52
ENDBRANCH  18  51
TORSDOF 16
ENDMDL
MODEL 2
REMARK VINA RESULT:     -10.2      2.112      7.349
REMARK  16 active torsions:
REMARK  status: ('A' for Active; 'I' for Inactive)
REMARK    1  A    between atoms: C_6  and  C_7 
REMARK    2  A    between atoms: C_7  and  C_8 
REMARK    3  A    between atoms: C_8  and  C_9 
REMARK    4  A    between atoms: C_9  and  O_11 
REMARK    5  A    between atoms: C_16  and  C_17 
REMARK    6  A    between atoms: C_17  and  C_18 
REMARK    7  A    between atoms: C_18  and  C_19 
REMARK    8  A    between atoms: C_19  and  O_21 
REMARK    9  A    between atoms: C_28  and  C_29 
REMARK   10  A    between atoms: C_29  and  C_30 
REMARK   11  A    between atoms: C_30  and  C_31 
REMARK   12  A    between atoms: C_31  and  O_33 
REMARK   13  A    between atoms: C_42  and  C_43 
REMARK   14  A    between atoms: C_43  and  C_44 
REMARK   15  A    between atoms: C_44  and  C_45 
REMARK   16  A    between atoms: C_45  and  O_47 
ROOT
HETATM    1  C   UNK     0      -5.809 -12.560  18.493  0.00  0.00     0.051 C 
HETATM    2  C   UNK     0      -6.889 -11.501  18.408  0.00  0.00    -0.031 A 
HETATM    3  C   UNK     0      -7.321 -10.605  19.373  0.00  0.00     0.021 A 
HETATM    4  N   UNK     0      -8.333  -9.863  18.866  0.00  0.00    -0.361 N 
HETATM    5  C   UNK     0      -8.550 -10.260  17.595  0.00  0.00     0.022 A 
HETATM    6  C   UNK     0      -7.666 -11.285  17.277  0.00  0.00    -0.027 A 
HETATM    7  C   UNK     0      -9.488  -9.702  16.570  0.00  0.00     0.115 C 
HETATM    8  C   UNK     0      -9.574  -8.188  16.478  0.00  0.00     0.021 A 
HETATM    9  N   UNK     0      -8.597  -7.284  16.644  0.00  0.00    -0.361 N 
HETATM   10  C   UNK     0      -9.147  -6.053  16.563  0.00  0.00     0.022 A 
HETATM   11  C   UNK     0     -10.514  -6.169  16.329  0.00  0.00    -0.027 A 
HETATM   12  C   UNK     0     -10.790  -7.511  16.275  0.00  0.00    -0.031 A 
HETATM   13  C   UNK     0     -12.155  -8.114  16.033  0.00  0.00     0.051 C 
HETATM   14  C   UNK     0      -8.418  -4.726  16.755  0.00  0.00     0.115 C 
HETATM   15  C   UNK     0      -7.793  -4.560  18.131  0.00  0.00     0.021 A 
HETATM   16  N   UNK     0      -6.875  -5.352  18.717  0.00  0.00    -0.361 N 
HETATM   17  C   UNK     0      -6.636  -4.906  19.952  0.00  0.00     0.022 A 
HETATM   18  C   UNK     0      -7.430  -3.764  20.179  0.00  0.00    -0.027 A 
HETATM   19  C   UNK     0      -8.149  -3.557  19.030  0.00  0.00    -0.031 A 
HETATM   20  C   UNK     0      -9.110  -2.400  18.833  0.00  0.00     0.051 C 
HETATM   21  C   UNK     0      -5.751  -5.477  21.037  0.00  0.00     0.115 C 
HETATM   22  C   UNK     0      -5.621  -6.980  21.112  0.00  0.00     0.022 A 
HETATM   23  N   UNK     0      -6.576  -7.905  20.948  0.00  0.00    -0.361 N 
HETATM   24  C   UNK     0      -5.993  -9.121  20.954  0.00  0.00     0.021 A 
HETATM   25  C   UNK     0      -4.631  -8.976  21.138  0.00  0.00    -0.031 A 
HETATM   26  C   UNK     0      -3.566 -10.046  21.255  0.00  0.00     0.051 C 
HETATM   27  C   UNK     0      -4.369  -7.614  21.242  0.00  0.00    -0.027 A 
HETATM   28  C   UNK     0      -6.651 -10.468  20.712  0.00  0.00     0.115 C 
HETATM   29  H   UNK     0      -8.914  -9.091  19.422  0.00  0.00     0.165 HD
HETATM   30  H   UNK     0      -7.509  -7.509  16.768  0.00  0.00     0.165 HD
HETATM   31  H   UNK     0      -6.348  -6.214  18.232  0.00  0.00     0.165 HD
HETATM   32  H   UNK     0      -7.677  -7.710  20.868  0.00  0.00     0.165 HD
ENDROOT
BRANCH   6  33
HETATM   33  C   UNK     0      -7.507 -12.067  15.997  0.00  0.00     0.051 C 
BRANCH  33  34
HETATM   34  C   UNK     0      -7.892 -11.225  14.804  0.00  0.00     0.114 C 
BRANCH  34  35
HETATM   35  C   UNK     0      -8.464 -12.142  13.777  0.00  0.00     0.139 C 
HETATM   36  O   UNK     0      -8.058 -13.337  13.693  0.00  0.00    -0.650 OA
BRANCH  35  37
HETATM   37  O   UNK     0      -9.450 -11.742  12.882  0.00  0.00    -0.776 OA
HETATM   38  H   UNK     0      -9.390 -11.942  11.897  0.00  0.00     0.167 HD
ENDBRANCH  35  37
ENDBRANCH  34  35
ENDBRANCH  33  34
ENDBRANCH   6  33
BRANCH  27  39
HETATM   39  C   UNK     0      -3.012  -7.069  21.518  0.00  0.00     0.051 C 
BRANCH  39  40
HETATM   40  C   UNK     0      -2.671  -6.723  22.898  0.00  0.00     0.114 C 
BRANCH  40  41
HETATM   41  C   UNK     0      -1.550  -7.320  23.588  0.00  0.00     0.139 C 
HETATM   42  O   UNK     0      -0.772  -8.126  23.058  0.00  0.00    -0.650 OA
BRANCH  41  43
HETATM   43  O   UNK     0      -1.313  -6.976  24.949  0.00  0.00    -0.776 OA
HETATM   44  H   UNK     0      -2.140  -6.987  25.534  0.00  0.00     0.167 HD
ENDBRANCH  41  43
ENDBRANCH  40  41
ENDBRANCH  39  40
ENDBRANCH  27  39
BRANCH  11  45
HETATM   45  C   UNK     0     -11.536  -5.077  16.159  0.00  0.00     0.051 C 
BRANCH  45  46
HETATM   46  C   UNK     0     -11.965  -4.444  17.432  0.00  0.00     0.114 C 
BRANCH  46  47
HETATM   47  C   UNK     0     -13.431  -4.677  17.569  0.00  0.00     0.139 C 
HETATM   48  O   UNK     0     -14.208  -3.771  17.237  0.00  0.00    -0.650 OA
BRANCH  47  49
HETATM   49  O   UNK     0     -13.912  -5.867  18.052  0.00  0.00    -0.776 OA
HETATM   50  H   UNK     0     -14.836  -5.943  18.495  0.00  0.00     0.167 HD
ENDBRANCH  47  49
ENDBRANCH  46  47
ENDBRANCH  45  46
ENDBRANCH  11  45
BRANCH  18  51
HETATM   51  C   UNK     0      -7.485  -2.905  21.415  0.00  0.00     0.051 C 
BRANCH  51  52
HETATM   52  C   UNK     0      -6.540  -1.738  21.165  0.00  0.00     0.114 C 
BRANCH  52  53
HETATM   53  C   UNK     0      -6.141  -1.076  22.422  0.00  0.00     0.139 C 
HETATM   54  O   UNK     0      -6.861  -1.167  23.429  0.00  0.00    -0.650 OA
BRANCH  53  55
HETATM   55  O   UNK     0      -4.972  -0.355  22.468  0.00  0.00    -0.776 OA
HETATM   56  H   UNK     0      -4.810   0.523  22.036  0.00  0.00     0.167 HD
ENDBRANCH  53  55
ENDBRANCH  52  53
ENDBRANCH  51  52
ENDBRANCH  18  51
TORSDOF 16
ENDMDL
MODEL 3
REMARK VINA RESULT:     -10.0      2.685      8.136
REMARK  16 active torsions:
REMARK  status: ('A' for Active; 'I' for Inactive)
REMARK    1  A    between atoms: C_6  and  C_7 
REMARK    2  A    between atoms: C_7  and  C_8 
REMARK    3  A    between atoms: C_8  and  C_9 
REMARK    4  A    between atoms: C_9  and  O_11 
REMARK    5  A    between atoms: C_16  and  C_17 
REMARK    6  A    between atoms: C_17  and  C_18 
REMARK    7  A    between atoms: C_18  and  C_19 
REMARK    8  A    between atoms: C_19  and  O_21 
REMARK    9  A    between atoms: C_28  and  C_29 
REMARK   10  A    between atoms: C_29  and  C_30 
REMARK   11  A    between atoms: C_30  and  C_31 
REMARK   12  A    between atoms: C_31  and  O_33 
REMARK   13  A    between atoms: C_42  and  C_43 
REMARK   14  A    between atoms: C_43  and  C_44 
REMARK   15  A    between atoms: C_44  and  C_45 
REMARK   16  A    between atoms: C_45  and  O_47 
ROOT
HETATM    1  C   UNK     0     -10.315  -5.798  16.248  0.00  0.00     0.051 C 
HETATM    2  C   UNK     0      -9.625  -5.745  17.596  0.00  0.00    -0.031 A 
HETATM    3  C   UNK     0      -9.399  -6.763  18.509  0.00  0.00     0.021 A 
HETATM    4  N   UNK     0      -8.772  -6.250  19.595  0.00  0.00    -0.361 N 
HETATM    5  C   UNK     0      -8.586  -4.930  19.389  0.00  0.00     0.022 A 
HETATM    6  C   UNK     0      -9.110  -4.580  18.149  0.00  0.00    -0.027 A 
HETATM    7  C   UNK     0      -7.863  -3.927  20.234  0.00  0.00     0.115 C 
HETATM    8  C   UNK     0      -6.544  -4.371  20.840  0.00  0.00     0.021 A 
HETATM    9  N   UNK     0      -5.610  -5.178  20.312  0.00  0.00    -0.361 N 
HETATM   10  C   UNK     0      -4.649  -5.371  21.239  0.00  0.00     0.022 A 
HETATM   11  C   UNK     0      -4.967  -4.661  22.394  0.00  0.00    -0.027 A 
HETATM   12  C   UNK     0      -6.160  -4.029  22.149  0.00  0.00    -0.031 A 
HETATM   13  C   UNK     0      -6.892  -3.136  23.125  0.00  0.00     0.051 C 
HETATM   14  C   UNK     0      -3.424  -6.270  21.095  0.00  0.00     0.115 C 
HETATM   15  C   UNK     0      -3.759  -7.735  20.867  0.00  0.00     0.021 A 
HETATM   16  N   UNK     0      -4.486  -8.265  19.866  0.00  0.00    -0.361 N 
HETATM   17  C   UNK     0      -4.610  -9.580  20.062  0.00  0.00     0.022 A 
HETATM   18  C   UNK     0      -3.922  -9.924  21.243  0.00  0.00    -0.027 A 
HETATM   19  C   UNK     0      -3.393  -8.760  21.737  0.00  0.00    -0.031 A 
HETATM   20  C   UNK     0      -2.539  -8.686  22.990  0.00  0.00     0.051 C 
HETATM   21  C   UNK     0      -5.382 -10.612  19.273  0.00  0.00     0.115 C 
HETATM   22  C   UNK     0      -6.675 -10.172  18.628  0.00  0.00     0.022 A 
HETATM   23  N   UNK     0      -7.621  -9.367  19.129  0.00  0.00    -0.361 N 
HETATM   24  C   UNK     0      -8.529  -9.126  18.161  0.00  0.00     0.021 A 
HETATM   25  C   UNK     0      -8.164  -9.801  17.012  0.00  0.00    -0.031 A 
HETATM   26  C   UNK     0      -8.882  -9.874  15.680  0.00  0.00     0.051 C 
HETATM   27  C   UNK     0      -6.981 -10.478  17.286  0.00  0.00    -0.027 A 
HETATM   28  C   UNK     0      -9.731  -8.200  18.223  0.00  0.00     0.115 C 
HETATM   29  H   UNK     0      -8.501  -6.817  20.516  0.00  0.00     0.165 HD
HETATM   30  H   UNK     0      -5.602  -5.573  19.266  0.00  0.00     0.165 HD
HETATM   31  H   UNK     0      -4.880  -7.709  18.976  0.00  0.00     0.165 HD
HETATM   32  H   UNK     0      -7.680  -8.995  20.185  0.00  0.00     0.165 HD
ENDROOT
BRANCH   6  33
HETATM   33  C   UNK     0      -9.161  -3.239  17.461  0.00  0.00     0.051 C 
BRANCH  33  34
HETATM   34  C   UNK     0     -10.331  -2.426  17.959  0.00  0.00     0.114 C 
BRANCH  34  35
HETATM   35  C   UNK     0      -9.821  -1.063  18.286  0.00  0.00     0.139 C 
HETATM   36  O   UNK     0     -10.627  -0.096  18.417  0.00  0.00    -0.650 OA
BRANCH  35  37
HETATM   37  O   UNK     0      -8.470  -0.791  18.461  0.00  0.00    -0.776 OA
HETATM   38  H   UNK     0      -7.905  -1.295  19.125  0.00  0.00     0.167 HD
ENDBRANCH  35  37
ENDBRANCH  34  35
ENDBRANCH  33  34
ENDBRANCH   6  33
BRANCH  27  39
HETATM   39  C   UNK     0      -6.316 -11.378  16.305  0.00  0.00     0.051 C 
BRANCH  39  40
HETATM   40  C   UNK     0      -6.706 -12.787  16.280  0.00  0.00     0.114 C 
BRANCH  40  41
HETATM   41  C   UNK     0      -7.355 -13.387  15.136  0.00  0.00     0.139 C 
HETATM   42  O   UNK     0      -7.528 -12.797  14.061  0.00  0.00    -0.650 OA
BRANCH  41  43
HETATM   43  O   UNK     0      -7.826 -14.727  15.233  0.00  0.00    -0.776 OA
HETATM   44  H   UNK     0      -8.743 -14.820  15.652  0.00  0.00     0.167 HD
ENDBRANCH  41  43
ENDBRANCH  40  41
ENDBRANCH  39  40
ENDBRANCH  27  39
BRANCH  11  45
HETATM   45  C   UNK     0      -4.196  -4.565  23.683  0.00  0.00     0.051 C 
BRANCH  45  46
HETATM   46  C   UNK     0      -3.152  -3.509  23.687  0.00  0.00     0.114 C 
BRANCH  46  47
HETATM   47  C   UNK     0      -1.897  -4.131  24.201  0.00  0.00     0.139 C 
HETATM   48  O   UNK     0      -0.881  -3.428  24.289  0.00  0.00    -0.650 OA
BRANCH  47  49
HETATM   49  O   UNK     0      -1.867  -5.452  24.569  0.00  0.00    -0.776 OA
HETATM   50  H   UNK     0      -2.544  -6.134  24.206  0.00  0.00     0.167 HD
ENDBRANCH  47  49
ENDBRANCH  46  47
ENDBRANCH  45  46
ENDBRANCH  11  45
BRANCH  18  51
HETATM   51  C   UNK     0      -3.760 -11.291  21.856  0.00  0.00     0.051 C 
BRANCH  51  52
HETATM   52  C   UNK     0      -4.788 -11.381  22.974  0.00  0.00     0.114 C 
BRANCH  52  53
HETATM   53  C   UNK     0      -5.609 -12.603  22.869  0.00  0.00     0.139 C 
HETATM   54  O   UNK     0      -5.928 -13.043  21.753  0.00  0.00    -0.650 OA
BRANCH  53  55
HETATM   55  O   UNK     0      -6.020 -13.246  24.011  0.00  0.00    -0.776 OA
HETATM   56  H   UNK     0      -6.210 -14.216  24.099  0.00  0.00     0.167 HD
ENDBRANCH  53  55
ENDBRANCH  52  53
ENDBRANCH  51  52
ENDBRANCH  18  51
TORSDOF 16
ENDMDL
MODEL 4
REMARK VINA RESULT:      -9.9      2.335      5.269
REMARK  16 active torsions:
REMARK  status: ('A' for Active; 'I' for Inactive)
REMARK    1  A    between atoms: C_6  and  C_7 
REMARK    2  A    between atoms: C_7  and  C_8 
REMARK    3  A    between atoms: C_8  and  C_9 
REMARK    4  A    between atoms: C_9  and  O_11 
REMARK    5  A    between atoms: C_16  and  C_17 
REMARK    6  A    between atoms: C_17  and  C_18 
REMARK    7  A    between atoms: C_18  and  C_19 
REMARK    8  A    between atoms: C_19  and  O_21 
REMARK    9  A    between atoms: C_28  and  C_29 
REMARK   10  A    between atoms: C_29  and  C_30 
REMARK   11  A    between atoms: C_30  and  C_31 
REMARK   12  A    between atoms: C_31  and  O_33 
REMARK   13  A    between atoms: C_42  and  C_43 
REMARK   14  A    between atoms: C_43  and  C_44 
REMARK   15  A    between atoms: C_44  and  C_45 
REMARK   16  A    between atoms: C_45  and  O_47 
ROOT
HETATM    1  C   UNK     0     -11.601  -6.581  16.166  0.00  0.00     0.051 C 
HETATM    2  C   UNK     0     -10.377  -7.448  16.384  0.00  0.00    -0.031 A 
HETATM    3  C   UNK     0      -9.046  -7.078  16.498  0.00  0.00     0.021 A 
HETATM    4  N   UNK     0      -8.291  -8.191  16.655  0.00  0.00    -0.361 N 
HETATM    5  C   UNK     0      -9.112  -9.261  16.651  0.00  0.00     0.022 A 
HETATM    6  C   UNK     0     -10.424  -8.832  16.481  0.00  0.00    -0.027 A 
HETATM    7  C   UNK     0      -8.794 -10.706  16.881  0.00  0.00     0.115 C 
HETATM    8  C   UNK     0      -7.825 -11.019  18.007  0.00  0.00     0.021 A 
HETATM    9  N   UNK     0      -7.686 -10.398  19.189  0.00  0.00    -0.361 N 
HETATM   10  C   UNK     0      -6.640 -10.955  19.835  0.00  0.00     0.022 A 
HETATM   11  C   UNK     0      -6.095 -11.968  19.052  0.00  0.00    -0.027 A 
HETATM   12  C   UNK     0      -6.837 -12.014  17.899  0.00  0.00    -0.031 A 
HETATM   13  C   UNK     0      -6.609 -12.972  16.751  0.00  0.00     0.051 C 
HETATM   14  C   UNK     0      -6.081 -10.520  21.187  0.00  0.00     0.115 C 
HETATM   15  C   UNK     0      -5.574  -9.087  21.211  0.00  0.00     0.021 A 
HETATM   16  N   UNK     0      -6.267  -7.966  20.939  0.00  0.00    -0.361 N 
HETATM   17  C   UNK     0      -5.446  -6.916  21.003  0.00  0.00     0.022 A 
HETATM   18  C   UNK     0      -4.157  -7.374  21.343  0.00  0.00    -0.027 A 
HETATM   19  C   UNK     0      -4.251  -8.735  21.472  0.00  0.00    -0.031 A 
HETATM   20  C   UNK     0      -3.089  -9.627  21.868  0.00  0.00     0.051 C 
HETATM   21  C   UNK     0      -5.711  -5.456  20.714  0.00  0.00     0.115 C 
HETATM   22  C   UNK     0      -6.707  -5.129  19.626  0.00  0.00     0.022 A 
HETATM   23  N   UNK     0      -6.869  -5.733  18.442  0.00  0.00    -0.361 N 
HETATM   24  C   UNK     0      -7.965  -5.215  17.850  0.00  0.00     0.021 A 
HETATM   25  C   UNK     0      -8.515  -4.248  18.668  0.00  0.00    -0.031 A 
HETATM   26  C   UNK     0      -9.720  -3.364  18.423  0.00  0.00     0.051 C 
HETATM   27  C   UNK     0      -7.727  -4.174  19.811  0.00  0.00    -0.027 A 
HETATM   28  C   UNK     0      -8.602  -5.643  16.539  0.00  0.00     0.115 C 
HETATM   29  H   UNK     0      -7.179  -8.215  16.727  0.00  0.00     0.165 HD
HETATM   30  H   UNK     0      -8.357  -9.600  19.592  0.00  0.00     0.165 HD
HETATM   31  H   UNK     0      -7.370  -7.908  20.744  0.00  0.00     0.165 HD
HETATM   32  H   UNK     0      -6.187  -6.501  17.993  0.00  0.00     0.165 HD
ENDROOT
BRANCH   6  33
HETATM   33  C   UNK     0     -11.702  -9.628  16.402  0.00  0.00     0.051 C 
BRANCH  33  34
HETATM   34  C   UNK     0     -11.865 -10.244  15.032  0.00  0.00     0.114 C 
BRANCH  34  35
HETATM   35  C   UNK     0     -12.015 -11.716  15.220  0.00  0.00     0.139 C 
HETATM   36  O   UNK     0     -11.085 -12.500  14.872  0.00  0.00    -0.650 OA
BRANCH  35  37
HETATM   37  O   UNK     0     -13.154 -12.289  15.773  0.00  0.00    -0.776 OA
HETATM   38  H   UNK     0     -13.134 -12.769  16.658  0.00  0.00     0.167 HD
ENDBRANCH  35  37
ENDBRANCH  34  35
ENDBRANCH  33  34
ENDBRANCH   6  33
BRANCH  27  39
HETATM   39  C   UNK     0      -7.967  -3.188  20.900  0.00  0.00     0.051 C 
BRANCH  39  40
HETATM   40  C   UNK     0      -7.010  -2.096  21.070  0.00  0.00     0.114 C 
BRANCH  40  41
HETATM   41  C   UNK     0      -6.029  -2.089  22.132  0.00  0.00     0.139 C 
HETATM   42  O   UNK     0      -6.288  -2.395  23.304  0.00  0.00    -0.650 OA
BRANCH  41  43
HETATM   43  O   UNK     0      -4.688  -1.714  21.832  0.00  0.00    -0.776 OA
HETATM   44  H   UNK     0      -4.599  -0.828  21.350  0.00  0.00     0.167 HD
ENDBRANCH  41  43
ENDBRANCH  40  41
ENDBRANCH  39  40
ENDBRANCH  27  39
BRANCH  11  45
HETATM   45  C   UNK     0      -4.928 -12.869  19.356  0.00  0.00     0.051 C 
BRANCH  45  46
HETATM   46  C   UNK     0      -3.604 -12.272  19.044  0.00  0.00     0.114 C 
BRANCH  46  47
HETATM   47  C   UNK     0      -2.673 -13.397  18.743  0.00  0.00     0.139 C 
HETATM   48  O   UNK     0      -1.625 -13.150  18.129  0.00  0.00    -0.650 OA
BRANCH  47  49
HETATM   49  O   UNK     0      -2.968 -14.678  19.136  0.00  0.00    -0.776 OA
HETATM   50  H   UNK     0      -2.265 -15.427  19.125  0.00  0.00     0.167 HD
ENDBRANCH  47  49
ENDBRANCH  46  47
ENDBRANCH  45  46
ENDBRANCH  11  45
BRANCH  18  51
HETATM   51  C   UNK     0      -2.909  -6.556  21.554  0.00  0.00     0.051 C 
BRANCH  51  52
HETATM   52  C   UNK     0      -2.903  -6.160  23.023  0.00  0.00     0.114 C 
BRANCH  52  53
HETATM   53  C   UNK     0      -3.334  -4.762  23.217  0.00  0.00     0.139 C 
HETATM   54  O   UNK     0      -2.786  -3.848  22.581  0.00  0.00    -0.650 OA
BRANCH  53  55
HETATM   55  O   UNK     0      -4.342  -4.480  24.107  0.00  0.00    -0.776 OA
HETATM   56  H   UNK     0      -5.181  -3.989  23.903  0.00  0.00     0.167 HD
ENDBRANCH  53  55
ENDBRANCH  52  53
ENDBRANCH  51  52
ENDBRANCH  18  51
TORSDOF 16
ENDMDL
MODEL 5
REMARK VINA RESULT:      -9.4      4.458      9.458
REMARK  16 active torsions:
REMARK  status: ('A' for Active; 'I' for Inactive)
REMARK    1  A    between atoms: C_6  and  C_7 
REMARK    2  A    between atoms: C_7  and  C_8 
REMARK    3  A    between atoms: C_8  and  C_9 
REMARK    4  A    between atoms: C_9  and  O_11 
REMARK    5  A    between atoms: C_16  and  C_17 
REMARK    6  A    between atoms: C_17  and  C_18 
REMARK    7  A    between atoms: C_18  and  C_19 
REMARK    8  A    between atoms: C_19  and  O_21 
REMARK    9  A    between atoms: C_28  and  C_29 
REMARK   10  A    between atoms: C_29  and  C_30 
REMARK   11  A    between atoms: C_30  and  C_31 
REMARK   12  A    between atoms: C_31  and  O_33 
REMARK   13  A    between atoms: C_42  and  C_43 
REMARK   14  A    between atoms: C_43  and  C_44 
REMARK   15  A    between atoms: C_44  and  C_45 
REMARK   16  A    between atoms: C_45  and  O_47 
ROOT
HETATM    1  C   UNK     0       0.250 -12.748  21.855  0.00  0.00     0.051 C 
HETATM    2  C   UNK     0      -1.203 -12.318  21.820  0.00  0.00    -0.031 A 
HETATM    3  C   UNK     0      -1.864 -11.387  22.605  0.00  0.00     0.021 A 
HETATM    4  N   UNK     0      -3.168 -11.351  22.242  0.00  0.00    -0.361 N 
HETATM    5  C   UNK     0      -3.350 -12.232  21.237  0.00  0.00     0.022 A 
HETATM    6  C   UNK     0      -2.141 -12.857  20.949  0.00  0.00    -0.027 A 
HETATM    7  C   UNK     0      -4.576 -12.507  20.423  0.00  0.00     0.115 C 
HETATM    8  C   UNK     0      -5.381 -11.301  19.974  0.00  0.00     0.021 A 
HETATM    9  N   UNK     0      -4.938 -10.088  19.609  0.00  0.00    -0.361 N 
HETATM   10  C   UNK     0      -6.010  -9.301  19.379  0.00  0.00     0.022 A 
HETATM   11  C   UNK     0      -7.176 -10.029  19.592  0.00  0.00    -0.027 A 
HETATM   12  C   UNK     0      -6.788 -11.290  19.967  0.00  0.00    -0.031 A 
HETATM   13  C   UNK     0      -7.723 -12.431  20.298  0.00  0.00     0.051 C 
HETATM   14  C   UNK     0      -5.979  -7.822  19.002  0.00  0.00     0.115 C 
HETATM   15  C   UNK     0      -5.317  -6.935  20.044  0.00  0.00     0.021 A 
HETATM   16  N   UNK     0      -4.061  -7.022  20.519  0.00  0.00    -0.361 N 
HETATM   17  C   UNK     0      -3.888  -6.105  21.473  0.00  0.00     0.022 A 
HETATM   18  C   UNK     0      -5.087  -5.379  21.620  0.00  0.00    -0.027 A 
HETATM   19  C   UNK     0      -5.973  -5.907  20.719  0.00  0.00    -0.031 A 
HETATM   20  C   UNK     0      -7.386  -5.388  20.520  0.00  0.00     0.051 C 
HETATM   21  C   UNK     0      -2.694  -5.839  22.361  0.00  0.00     0.115 C 
HETATM   22  C   UNK     0      -1.857  -7.026  22.779  0.00  0.00     0.022 A 
HETATM   23  N   UNK     0      -2.272  -8.246  23.144  0.00  0.00    -0.361 N 
HETATM   24  C   UNK     0      -1.188  -9.034  23.292  0.00  0.00     0.021 A 
HETATM   25  C   UNK     0      -0.048  -8.301  23.027  0.00  0.00    -0.031 A 
HETATM   26  C   UNK     0       1.402  -8.734  23.100  0.00  0.00     0.051 C 
HETATM   27  C   UNK     0      -0.450  -7.012  22.697  0.00  0.00    -0.027 A 
HETATM   28  C   UNK     0      -1.156 -10.520  23.607  0.00  0.00     0.115 C 
HETATM   29  H   UNK     0      -3.959 -10.732  22.726  0.00  0.00     0.165 HD
HETATM   30  H   UNK     0      -3.868  -9.798  19.464  0.00  0.00     0.165 HD
HETATM   31  H   UNK     0      -3.264  -7.714  20.141  0.00  0.00     0.165 HD
HETATM   32  H   UNK     0      -3.333  -8.551  23.342  0.00  0.00     0.165 HD
ENDROOT
BRANCH   6  33
HETATM   33  C   UNK     0      -1.815 -13.914  19.925  0.00  0.00     0.051 C 
BRANCH  33  34
HETATM   34  C   UNK     0      -1.476 -13.285  18.595  0.00  0.00     0.114 C 
BRANCH  34  35
HETATM   35  C   UNK     0      -0.295 -14.010  18.046  0.00  0.00     0.139 C 
HETATM   36  O   UNK     0       0.807 -13.996  18.668  0.00  0.00    -0.650 OA
BRANCH  35  37
HETATM   37  O   UNK     0      -0.341 -14.723  16.855  0.00  0.00    -0.776 OA
HETATM   38  H   UNK     0       0.360 -14.615  16.139  0.00  0.00     0.167 HD
ENDBRANCH  35  37
ENDBRANCH  34  35
ENDBRANCH  33  34
ENDBRANCH   6  33
BRANCH  27  39
HETATM   39  C   UNK     0       0.510  -5.910  22.415  0.00  0.00     0.051 C 
BRANCH  39  40
HETATM   40  C   UNK     0       0.744  -4.911  23.457  0.00  0.00     0.114 C 
BRANCH  40  41
HETATM   41  C   UNK     0      -0.042  -3.702  23.556  0.00  0.00     0.139 C 
HETATM   42  O   UNK     0      -0.880  -3.503  24.445  0.00  0.00    -0.650 OA
BRANCH  41  43
HETATM   43  O   UNK     0       0.145  -2.675  22.588  0.00  0.00    -0.776 OA
HETATM   44  H   UNK     0       1.081  -2.289  22.561  0.00  0.00     0.167 HD
ENDBRANCH  41  43
ENDBRANCH  40  41
ENDBRANCH  39  40
ENDBRANCH  27  39
BRANCH  11  45
HETATM   45  C   UNK     0      -8.606  -9.580  19.452  0.00  0.00     0.051 C 
BRANCH  45  46
HETATM   46  C   UNK     0      -9.076  -8.702  20.554  0.00  0.00     0.114 C 
BRANCH  46  47
HETATM   47  C   UNK     0      -9.768  -9.571  21.548  0.00  0.00     0.139 C 
HETATM   48  O   UNK     0     -10.936  -9.916  21.321  0.00  0.00    -0.650 OA
BRANCH  47  49
HETATM   49  O   UNK     0      -9.127  -9.980  22.690  0.00  0.00    -0.776 OA
HETATM   50  H   UNK     0      -9.220  -9.473  23.579  0.00  0.00     0.167 HD
ENDBRANCH  47  49
ENDBRANCH  46  47
ENDBRANCH  45  46
ENDBRANCH  11  45
BRANCH  18  51
HETATM   51  C   UNK     0      -5.365  -4.229  22.554  0.00  0.00     0.051 C 
BRANCH  51  52
HETATM   52  C   UNK     0      -4.805  -2.986  21.879  0.00  0.00     0.114 C 
BRANCH  52  53
HETATM   53  C   UNK     0      -3.684  -2.404  22.642  0.00  0.00     0.139 C 
HETATM   54  O   UNK     0      -2.760  -1.827  22.046  0.00  0.00    -0.650 OA
BRANCH  53  55
HETATM   55  O   UNK     0      -3.669  -2.507  24.011  0.00  0.00    -0.776 OA
HETATM   56  H   UNK     0      -4.377  -2.186  24.629  0.00  0.00     0.167 HD
ENDBRANCH  53  55
ENDBRANCH  52  53
ENDBRANCH  51  52
ENDBRANCH  18  51
TORSDOF 16
ENDMDL
MODEL 6
REMARK VINA RESULT:      -9.2     28.568     31.798
REMARK  16 active torsions:
REMARK  status: ('A' for Active; 'I' for Inactive)
REMARK    1  A    between atoms: C_6  and  C_7 
REMARK    2  A    between atoms: C_7  and  C_8 
REMARK    3  A    between atoms: C_8  and  C_9 
REMARK    4  A    between atoms: C_9  and  O_11 
REMARK    5  A    between atoms: C_16  and  C_17 
REMARK    6  A    between atoms: C_17  and  C_18 
REMARK    7  A    between atoms: C_18  and  C_19 
REMARK    8  A    between atoms: C_19  and  O_21 
REMARK    9  A    between atoms: C_28  and  C_29 
REMARK   10  A    between atoms: C_29  and  C_30 
REMARK   11  A    between atoms: C_30  and  C_31 
REMARK   12  A    between atoms: C_31  and  O_33 
REMARK   13  A    between atoms: C_42  and  C_43 
REMARK   14  A    between atoms: C_43  and  C_44 
REMARK   15  A    between atoms: C_44  and  C_45 
REMARK   16  A    between atoms: C_45  and  O_47 
ROOT
HETATM    1  C   UNK     0      13.415  11.301  11.871  0.00  0.00     0.051 C 
HETATM    2  C   UNK     0      13.112  10.529  10.603  0.00  0.00    -0.031 A 
HETATM    3  C   UNK     0      12.231  10.833   9.577  0.00  0.00     0.021 A 
HETATM    4  N   UNK     0      12.264   9.840   8.658  0.00  0.00    -0.361 N 
HETATM    5  C   UNK     0      13.154   8.913   9.071  0.00  0.00     0.022 A 
HETATM    6  C   UNK     0      13.701   9.312  10.286  0.00  0.00    -0.027 A 
HETATM    7  C   UNK     0      13.629   7.675   8.378  0.00  0.00     0.115 C 
HETATM    8  C   UNK     0      13.920   7.794   6.892  0.00  0.00     0.021 A 
HETATM    9  N   UNK     0      14.436   8.836   6.222  0.00  0.00    -0.361 N 
HETATM   10  C   UNK     0      14.431   8.532   4.907  0.00  0.00     0.022 A 
HETATM   11  C   UNK     0      13.906   7.256   4.725  0.00  0.00    -0.027 A 
HETATM   12  C   UNK     0      13.582   6.785   5.972  0.00  0.00    -0.031 A 
HETATM   13  C   UNK     0      12.981   5.429   6.265  0.00  0.00     0.051 C 
HETATM   14  C   UNK     0      14.870   9.449   3.768  0.00  0.00     0.115 C 
HETATM   15  C   UNK     0      14.063  10.733   3.666  0.00  0.00     0.021 A 
HETATM   16  N   UNK     0      13.907  11.683   4.607  0.00  0.00    -0.361 N 
HETATM   17  C   UNK     0      13.066  12.615   4.154  0.00  0.00     0.022 A 
HETATM   18  C   UNK     0      12.662  12.261   2.852  0.00  0.00    -0.027 A 
HETATM   19  C   UNK     0      13.294  11.081   2.557  0.00  0.00    -0.031 A 
HETATM   20  C   UNK     0      13.163  10.363   1.226  0.00  0.00     0.051 C 
HETATM   21  C   UNK     0      12.512  13.841   4.844  0.00  0.00     0.115 C 
HETATM   22  C   UNK     0      12.259  13.751   6.330  0.00  0.00     0.022 A 
HETATM   23  N   UNK     0      11.750  12.725   7.025  0.00  0.00    -0.361 N 
HETATM   24  C   UNK     0      11.836  13.018   8.338  0.00  0.00     0.021 A 
HETATM   25  C   UNK     0      12.406  14.268   8.493  0.00  0.00    -0.031 A 
HETATM   26  C   UNK     0      12.672  15.043   9.766  0.00  0.00     0.051 C 
HETATM   27  C   UNK     0      12.685  14.757   7.221  0.00  0.00    -0.027 A 
HETATM   28  C   UNK     0      11.473  12.129   9.515  0.00  0.00     0.115 C 
HETATM   29  H   UNK     0      11.630   9.781   7.743  0.00  0.00     0.165 HD
HETATM   30  H   UNK     0      14.852   9.767   6.679  0.00  0.00     0.165 HD
HETATM   31  H   UNK     0      14.438  11.721   5.594  0.00  0.00     0.165 HD
HETATM   32  H   UNK     0      11.284  11.802   6.592  0.00  0.00     0.165 HD
ENDROOT
BRANCH   6  33
HETATM   33  C   UNK     0      14.725   8.631  11.158  0.00  0.00     0.051 C 
BRANCH  33  34
HETATM   34  C   UNK     0      14.076   7.576  12.022  0.00  0.00     0.114 C 
BRANCH  34  35
HETATM   35  C   UNK     0      14.605   6.253  11.582  0.00  0.00     0.139 C 
HETATM   36  O   UNK     0      15.853   6.054  11.521  0.00  0.00    -0.650 OA
BRANCH  35  37
HETATM   37  O   UNK     0      13.776   5.195  11.229  0.00  0.00    -0.776 OA
HETATM   38  H   UNK     0      12.793   5.322  11.051  0.00  0.00     0.167 HD
ENDBRANCH  35  37
ENDBRANCH  34  35
ENDBRANCH  33  34
ENDBRANCH   6  33
BRANCH  27  39
HETATM   39  C   UNK     0      13.242  16.115   6.980  0.00  0.00     0.051 C 
BRANCH  39  40
HETATM   40  C   UNK     0      12.309  17.228   6.809  0.00  0.00     0.114 C 
BRANCH  40  41
HETATM   41  C   UNK     0      11.288  17.227   5.785  0.00  0.00     0.139 C 
HETATM   42  O   UNK     0      10.074  17.191   6.031  0.00  0.00    -0.650 OA
BRANCH  41  43
HETATM   43  O   UNK     0      11.680  17.268   4.417  0.00  0.00    -0.776 OA
HETATM   44  H   UNK     0      11.267  16.545   3.841  0.00  0.00     0.167 HD
ENDBRANCH  41  43
ENDBRANCH  40  41
ENDBRANCH  39  40
ENDBRANCH  27  39
BRANCH  11  45
HETATM   45  C   UNK     0      13.710   6.491   3.444  0.00  0.00     0.051 C 
BRANCH  45  46
HETATM   46  C   UNK     0      14.911   5.739   2.997  0.00  0.00     0.114 C 
BRANCH  46  47
HETATM   47  C   UNK     0      15.442   6.433   1.789  0.00  0.00     0.139 C 
HETATM   48  O   UNK     0      16.573   6.937   1.845  0.00  0.00    -0.650 OA
BRANCH  47  49
HETATM   49  O   UNK     0      14.696   6.513   0.640  0.00  0.00    -0.776 OA
HETATM   50  H   UNK     0      15.072   6.235  -0.274  0.00  0.00     0.167 HD
ENDBRANCH  47  49
ENDBRANCH  46  47
ENDBRANCH  45  46
ENDBRANCH  11  45
BRANCH  18  51
HETATM   51  C   UNK     0      11.741  13.018   1.930  0.00  0.00     0.051 C 
BRANCH  51  52
HETATM   52  C   UNK     0      12.624  13.956   1.121  0.00  0.00     0.114 C 
BRANCH  52  53
HETATM   53  C   UNK     0      12.208  15.364   1.267  0.00  0.00     0.139 C 
HETATM   54  O   UNK     0      11.282  15.662   2.039  0.00  0.00    -0.650 OA
BRANCH  53  55
HETATM   55  O   UNK     0      12.847  16.341   0.543  0.00  0.00    -0.776 OA
HETATM   56  H   UNK     0      13.699  16.788   0.789  0.00  0.00     0.167 HD
ENDBRANCH  53  55
ENDBRANCH  52  53
ENDBRANCH  51  52
ENDBRANCH  18  51
TORSDOF 16
ENDMDL
MODEL 7
REMARK VINA RESULT:      -9.2      4.256      7.437
REMARK  16 active torsions:
REMARK  status: ('A' for Active; 'I' for Inactive)
REMARK    1  A    between atoms: C_6  and  C_7 
REMARK    2  A    between atoms: C_7  and  C_8 
REMARK    3  A    between atoms: C_8  and  C_9 
REMARK    4  A    between atoms: C_9  and  O_11 
REMARK    5  A    between atoms: C_16  and  C_17 
REMARK    6  A    between atoms: C_17  and  C_18 
REMARK    7  A    between atoms: C_18  and  C_19 
REMARK    8  A    between atoms: C_19  and  O_21 
REMARK    9  A    between atoms: C_28  and  C_29 
REMARK   10  A    between atoms: C_29  and  C_30 
REMARK   11  A    between atoms: C_30  and  C_31 
REMARK   12  A    between atoms: C_31  and  O_33 
REMARK   13  A    between atoms: C_42  and  C_43 
REMARK   14  A    between atoms: C_43  and  C_44 
REMARK   15  A    between atoms: C_44  and  C_45 
REMARK   16  A    between atoms: C_45  and  O_47 
ROOT
HETATM    1  C   UNK     0      -8.908  -7.908  18.694  0.00  0.00     0.051 C 
HETATM    2  C   UNK     0      -7.629  -8.718  18.761  0.00  0.00    -0.031 A 
HETATM    3  C   UNK     0      -6.313  -8.284  18.764  0.00  0.00     0.021 A 
HETATM    4  N   UNK     0      -5.494  -9.362  18.804  0.00  0.00    -0.361 N 
HETATM    5  C   UNK     0      -6.260 -10.472  18.835  0.00  0.00     0.022 A 
HETATM    6  C   UNK     0      -7.601 -10.105  18.806  0.00  0.00    -0.027 A 
HETATM    7  C   UNK     0      -5.853 -11.906  18.976  0.00  0.00     0.115 C 
HETATM    8  C   UNK     0      -4.766 -12.209  19.992  0.00  0.00     0.021 A 
HETATM    9  N   UNK     0      -4.544 -11.624  21.179  0.00  0.00    -0.361 N 
HETATM   10  C   UNK     0      -3.415 -12.148  21.701  0.00  0.00     0.022 A 
HETATM   11  C   UNK     0      -2.900 -13.104  20.830  0.00  0.00    -0.027 A 
HETATM   12  C   UNK     0      -3.747 -13.148  19.752  0.00  0.00    -0.031 A 
HETATM   13  C   UNK     0      -3.586 -14.052  18.550  0.00  0.00     0.051 C 
HETATM   14  C   UNK     0      -2.750 -11.734  23.010  0.00  0.00     0.115 C 
HETATM   15  C   UNK     0      -2.311 -10.278  23.044  0.00  0.00     0.021 A 
HETATM   16  N   UNK     0      -3.080  -9.185  22.884  0.00  0.00    -0.361 N 
HETATM   17  C   UNK     0      -2.307  -8.097  22.912  0.00  0.00     0.022 A 
HETATM   18  C   UNK     0      -0.972  -8.500  23.110  0.00  0.00    -0.027 A 
HETATM   19  C   UNK     0      -0.988  -9.869  23.193  0.00  0.00    -0.031 A 
HETATM   20  C   UNK     0       0.248 -10.714  23.442  0.00  0.00     0.051 C 
HETATM   21  C   UNK     0      -2.668  -6.643  22.707  0.00  0.00     0.115 C 
HETATM   22  C   UNK     0      -3.778  -6.330  21.732  0.00  0.00     0.022 A 
HETATM   23  N   UNK     0      -4.025  -6.899  20.545  0.00  0.00    -0.361 N 
HETATM   24  C   UNK     0      -5.196  -6.418  20.080  0.00  0.00     0.021 A 
HETATM   25  C   UNK     0      -5.710  -5.509  20.985  0.00  0.00    -0.031 A 
HETATM   26  C   UNK     0      -6.973  -4.680  20.890  0.00  0.00     0.051 C 
HETATM   27  C   UNK     0      -4.820  -5.436  22.051  0.00  0.00    -0.027 A 
HETATM   28  C   UNK     0      -5.936  -6.831  18.820  0.00  0.00     0.115 C 
HETATM   29  H   UNK     0      -4.380  -9.332  18.769  0.00  0.00     0.165 HD
HETATM   30  H   UNK     0      -5.210 -10.876  21.675  0.00  0.00     0.165 HD
HETATM   31  H   UNK     0      -4.198  -9.177  22.796  0.00  0.00     0.165 HD
HETATM   32  H   UNK     0      -3.353  -7.615  20.004  0.00  0.00     0.165 HD
ENDROOT
BRANCH   6  33
HETATM   33  C   UNK     0      -8.842 -10.962  18.817  0.00  0.00     0.051 C 
BRANCH  33  34
HETATM   34  C   UNK     0      -9.493 -10.945  20.179  0.00  0.00     0.114 C 
BRANCH  34  35
HETATM   35  C   UNK     0      -8.741 -11.899  21.045  0.00  0.00     0.139 C 
HETATM   36  O   UNK     0      -8.235 -11.505  22.136  0.00  0.00    -0.650 OA
BRANCH  35  37
HETATM   37  O   UNK     0      -8.565 -13.236  20.710  0.00  0.00    -0.776 OA
HETATM   38  H   UNK     0      -9.210 -13.726  20.112  0.00  0.00     0.167 HD
ENDBRANCH  35  37
ENDBRANCH  34  35
ENDBRANCH  33  34
ENDBRANCH   6  33
BRANCH  27  39
HETATM   39  C   UNK     0      -5.001  -4.502  23.195  0.00  0.00     0.051 C 
BRANCH  39  40
HETATM   40  C   UNK     0      -4.632  -3.099  23.011  0.00  0.00     0.114 C 
BRANCH  40  41
HETATM   41  C   UNK     0      -3.261  -2.682  22.819  0.00  0.00     0.139 C 
HETATM   42  O   UNK     0      -2.296  -3.225  23.374  0.00  0.00    -0.650 OA
BRANCH  41  43
HETATM   43  O   UNK     0      -2.987  -1.590  21.947  0.00  0.00    -0.776 OA
HETATM   44  H   UNK     0      -2.281  -0.948  22.289  0.00  0.00     0.167 HD
ENDBRANCH  41  43
ENDBRANCH  40  41
ENDBRANCH  39  40
ENDBRANCH  27  39
BRANCH  11  45
HETATM   45  C   UNK     0      -1.668 -13.955  20.987  0.00  0.00     0.051 C 
BRANCH  45  46
HETATM   46  C   UNK     0      -0.422 -13.312  20.496  0.00  0.00     0.114 C 
BRANCH  46  47
HETATM   47  C   UNK     0       0.353 -14.355  19.765  0.00  0.00     0.139 C 
HETATM   48  O   UNK     0       1.452 -14.704  20.220  0.00  0.00    -0.650 OA
BRANCH  47  49
HETATM   49  O   UNK     0      -0.136 -14.915  18.612  0.00  0.00    -0.776 OA
HETATM   50  H   UNK     0      -0.726 -14.388  17.957  0.00  0.00     0.167 HD
ENDBRANCH  47  49
ENDBRANCH  46  47
ENDBRANCH  45  46
ENDBRANCH  11  45
BRANCH  18  51
HETATM   51  C   UNK     0       0.251  -7.628  23.235  0.00  0.00     0.051 C 
BRANCH  51  52
HETATM   52  C   UNK     0       0.364  -7.262  24.707  0.00  0.00     0.114 C 
BRANCH  52  53
HETATM   53  C   UNK     0       1.726  -7.493  25.227  0.00  0.00     0.139 C 
HETATM   54  O   UNK     0       2.542  -8.151  24.562  0.00  0.00    -0.650 OA
BRANCH  53  55
HETATM   55  O   UNK     0       2.082  -6.980  26.451  0.00  0.00    -0.776 OA
HETATM   56  H   UNK     0       2.366  -6.046  26.632  0.00  0.00     0.167 HD
ENDBRANCH  53  55
ENDBRANCH  52  53
ENDBRANCH  51  52
ENDBRANCH  18  51
TORSDOF 16
ENDMDL
MODEL 8
REMARK VINA RESULT:      -9.1     27.799     31.203
REMARK  16 active torsions:
REMARK  status: ('A' for Active; 'I' for Inactive)
REMARK    1  A    between atoms: C_6  and  C_7 
REMARK    2  A    between atoms: C_7  and  C_8 
REMARK    3  A    between atoms: C_8  and  C_9 
REMARK    4  A    between atoms: C_9  and  O_11 
REMARK    5  A    between atoms: C_16  and  C_17 
REMARK    6  A    between atoms: C_17  and  C_18 
REMARK    7  A    between atoms: C_18  and  C_19 
REMARK    8  A    between atoms: C_19  and  O_21 
REMARK    9  A    between atoms: C_28  and  C_29 
REMARK   10  A    between atoms: C_29  and  C_30 
REMARK   11  A    between atoms: C_30  and  C_31 
REMARK   12  A    between atoms: C_31  and  O_33 
REMARK   13  A    between atoms: C_42  and  C_43 
REMARK   14  A    between atoms: C_43  and  C_44 
REMARK   15  A    between atoms: C_44  and  C_45 
REMARK   16  A    between atoms: C_45  and  O_47 
ROOT
HETATM    1  C   UNK     0      13.221   7.924  12.176  0.00  0.00     0.051 C 
HETATM    2  C   UNK     0      13.051   7.890  10.671  0.00  0.00    -0.031 A 
HETATM    3  C   UNK     0      12.131   8.553   9.874  0.00  0.00     0.021 A 
HETATM    4  N   UNK     0      12.330   8.199   8.582  0.00  0.00    -0.361 N 
HETATM    5  C   UNK     0      13.363   7.332   8.537  0.00  0.00     0.022 A 
HETATM    6  C   UNK     0      13.836   7.114   9.827  0.00  0.00    -0.027 A 
HETATM    7  C   UNK     0      14.039   6.717   7.352  0.00  0.00     0.115 C 
HETATM    8  C   UNK     0      14.305   7.632   6.169  0.00  0.00     0.021 A 
HETATM    9  N   UNK     0      14.640   8.931   6.175  0.00  0.00    -0.361 N 
HETATM   10  C   UNK     0      14.686   9.359   4.896  0.00  0.00     0.022 A 
HETATM   11  C   UNK     0      14.381   8.303   4.041  0.00  0.00    -0.027 A 
HETATM   12  C   UNK     0      14.141   7.212   4.837  0.00  0.00    -0.031 A 
HETATM   13  C   UNK     0      13.776   5.831   4.340  0.00  0.00     0.051 C 
HETATM   14  C   UNK     0      14.964  10.786   4.432  0.00  0.00     0.115 C 
HETATM   15  C   UNK     0      13.953  11.804   4.932  0.00  0.00     0.021 A 
HETATM   16  N   UNK     0      13.640  12.093   6.209  0.00  0.00    -0.361 N 
HETATM   17  C   UNK     0      12.655  12.993   6.227  0.00  0.00     0.022 A 
HETATM   18  C   UNK     0      12.316  13.314   4.898  0.00  0.00    -0.027 A 
HETATM   19  C   UNK     0      13.137  12.564   4.096  0.00  0.00    -0.031 A 
HETATM   20  C   UNK     0      13.128  12.632   2.580  0.00  0.00     0.051 C 
HETATM   21  C   UNK     0      11.903  13.588   7.396  0.00  0.00     0.115 C 
HETATM   22  C   UNK     0      11.669  12.702   8.598  0.00  0.00     0.022 A 
HETATM   23  N   UNK     0      11.339  11.405   8.621  0.00  0.00    -0.361 N 
HETATM   24  C   UNK     0      11.376  10.981   9.901  0.00  0.00     0.021 A 
HETATM   25  C   UNK     0      11.728  12.035  10.722  0.00  0.00    -0.031 A 
HETATM   26  C   UNK     0      11.861  12.064  12.231  0.00  0.00     0.051 C 
HETATM   27  C   UNK     0      11.921  13.147   9.912  0.00  0.00    -0.027 A 
HETATM   28  C   UNK     0      11.167   9.569  10.419  0.00  0.00     0.115 C 
HETATM   29  H   UNK     0      11.715   8.534   7.715  0.00  0.00     0.165 HD
HETATM   30  H   UNK     0      14.893   9.538   7.079  0.00  0.00     0.165 HD
HETATM   31  H   UNK     0      14.158  11.688   7.118  0.00  0.00     0.165 HD
HETATM   32  H   UNK     0      11.035  10.785   7.738  0.00  0.00     0.165 HD
ENDROOT
BRANCH   6  33
HETATM   33  C   UNK     0      14.960   6.235  10.312  0.00  0.00     0.051 C 
BRANCH  33  34
HETATM   34  C   UNK     0      14.481   4.817  10.513  0.00  0.00     0.114 C 
BRANCH  34  35
HETATM   35  C   UNK     0      15.481   3.913   9.876  0.00  0.00     0.139 C 
HETATM   36  O   UNK     0      15.735   4.015   8.640  0.00  0.00    -0.650 OA
BRANCH  35  37
HETATM   37  O   UNK     0      16.170   2.938  10.586  0.00  0.00    -0.776 OA
HETATM   38  H   UNK     0      15.736   2.073  10.866  0.00  0.00     0.167 HD
ENDBRANCH  35  37
ENDBRANCH  34  35
ENDBRANCH  33  34
ENDBRANCH   6  33
BRANCH  27  39
HETATM   39  C   UNK     0      12.243  14.497  10.450  0.00  0.00     0.051 C 
BRANCH  39  40
HETATM   40  C   UNK     0      13.482  15.140  10.016  0.00  0.00     0.114 C 
BRANCH  40  41
HETATM   41  C   UNK     0      13.530  16.526   9.610  0.00  0.00     0.139 C 
HETATM   42  O   UNK     0      14.435  17.305   9.942  0.00  0.00    -0.650 OA
BRANCH  41  43
HETATM   43  O   UNK     0      12.490  17.041   8.785  0.00  0.00    -0.776 OA
HETATM   44  H   UNK     0      11.556  16.773   9.072  0.00  0.00     0.167 HD
ENDBRANCH  41  43
ENDBRANCH  40  41
ENDBRANCH  39  40
ENDBRANCH  27  39
BRANCH  11  45
HETATM   45  C   UNK     0      14.317   8.298   2.537  0.00  0.00     0.051 C 
BRANCH  45  46
HETATM   46  C   UNK     0      13.198   9.098   1.976  0.00  0.00     0.114 C 
BRANCH  46  47
HETATM   47  C   UNK     0      12.906   8.556   0.618  0.00  0.00     0.139 C 
HETATM   48  O   UNK     0      11.747   8.207   0.356  0.00  0.00    -0.650 OA
BRANCH  47  49
HETATM   49  O   UNK     0      13.899   8.444  -0.322  0.00  0.00    -0.776 OA
HETATM   50  H   UNK     0      14.894   8.493  -0.073  0.00  0.00     0.167 HD
ENDBRANCH  47  49
ENDBRANCH  46  47
ENDBRANCH  45  46
ENDBRANCH  11  45
BRANCH  18  51
HETATM   51  C   UNK     0      11.281  14.298   4.418  0.00  0.00     0.051 C 
BRANCH  51  52
HETATM   52  C   UNK     0      11.963  15.658   4.397  0.00  0.00     0.114 C 
BRANCH  52  53
HETATM   53  C   UNK     0      11.417  16.562   5.429  0.00  0.00     0.139 C 
HETATM   54  O   UNK     0      12.140  17.435   5.935  0.00  0.00    -0.650 OA
BRANCH  53  55
HETATM   55  O   UNK     0      10.109  16.428   5.827  0.00  0.00    -0.776 OA
HETATM   56  H   UNK     0       9.797  16.035   6.683  0.00  0.00     0.167 HD
ENDBRANCH  53  55
ENDBRANCH  52  53
ENDBRANCH  51  52
ENDBRANCH  18  51
TORSDOF 16
ENDMDL
MODEL 9
REMARK VINA RESULT:      -9.0     28.165     31.977
REMARK  16 active torsions:
REMARK  status: ('A' for Active; 'I' for Inactive)
REMARK    1  A    between atoms: C_6  and  C_7 
REMARK    2  A    between atoms: C_7  and  C_8 
REMARK    3  A    between atoms: C_8  and  C_9 
REMARK    4  A    between atoms: C_9  and  O_11 
REMARK    5  A    between atoms: C_16  and  C_17 
REMARK    6  A    between atoms: C_17  and  C_18 
REMARK    7  A    between atoms: C_18  and  C_19 
REMARK    8  A    between atoms: C_19  and  O_21 
REMARK    9  A    between atoms: C_28  and  C_29 
REMARK   10  A    between atoms: C_29  and  C_30 
REMARK   11  A    between atoms: C_30  and  C_31 
REMARK   12  A    between atoms: C_31  and  O_33 
REMARK   13  A    between atoms: C_42  and  C_43 
REMARK   14  A    between atoms: C_43  and  C_44 
REMARK   15  A    between atoms: C_44  and  C_45 
REMARK   16  A    between atoms: C_45  and  O_47 
ROOT
HETATM    1  C   UNK     0      13.459   6.318   4.071  0.00  0.00     0.051 C 
HETATM    2  C   UNK     0      13.753   7.177   5.284  0.00  0.00    -0.031 A 
HETATM    3  C   UNK     0      14.400   8.400   5.359  0.00  0.00     0.021 A 
HETATM    4  N   UNK     0      14.465   8.786   6.656  0.00  0.00    -0.361 N 
HETATM    5  C   UNK     0      13.864   7.840   7.407  0.00  0.00     0.022 A 
HETATM    6  C   UNK     0      13.410   6.818   6.580  0.00  0.00    -0.027 A 
HETATM    7  C   UNK     0      13.586   7.827   8.878  0.00  0.00     0.115 C 
HETATM    8  C   UNK     0      13.080   9.123   9.487  0.00  0.00     0.021 A 
HETATM    9  N   UNK     0      12.262  10.038   8.945  0.00  0.00    -0.361 N 
HETATM   10  C   UNK     0      12.158  11.071   9.808  0.00  0.00     0.022 A 
HETATM   11  C   UNK     0      12.922  10.809  10.941  0.00  0.00    -0.027 A 
HETATM   12  C   UNK     0      13.506   9.584  10.745  0.00  0.00    -0.031 A 
HETATM   13  C   UNK     0      14.425   8.887  11.724  0.00  0.00     0.051 C 
HETATM   14  C   UNK     0      11.380  12.364   9.578  0.00  0.00     0.115 C 
HETATM   15  C   UNK     0      11.863  13.169   8.382  0.00  0.00     0.021 A 
HETATM   16  N   UNK     0      11.930  12.772   7.097  0.00  0.00    -0.361 N 
HETATM   17  C   UNK     0      12.476  13.745   6.366  0.00  0.00     0.022 A 
HETATM   18  C   UNK     0      12.771  14.833   7.212  0.00  0.00    -0.027 A 
HETATM   19  C   UNK     0      12.381  14.459   8.472  0.00  0.00    -0.031 A 
HETATM   20  C   UNK     0      12.488  15.358   9.690  0.00  0.00     0.051 C 
HETATM   21  C   UNK     0      12.834  13.773   4.897  0.00  0.00     0.115 C 
HETATM   22  C   UNK     0      13.297  12.480   4.267  0.00  0.00     0.022 A 
HETATM   23  N   UNK     0      14.108  11.549   4.785  0.00  0.00    -0.361 N 
HETATM   24  C   UNK     0      14.135  10.496   3.943  0.00  0.00     0.021 A 
HETATM   25  C   UNK     0      13.330  10.760   2.852  0.00  0.00    -0.031 A 
HETATM   26  C   UNK     0      13.071   9.906   1.628  0.00  0.00     0.051 C 
HETATM   27  C   UNK     0      12.783  12.025   3.036  0.00  0.00    -0.027 A 
HETATM   28  C   UNK     0      14.839   9.165   4.142  0.00  0.00     0.115 C 
HETATM   29  H   UNK     0      14.968   9.705   7.035  0.00  0.00     0.165 HD
HETATM   30  H   UNK     0      11.716   9.937   7.975  0.00  0.00     0.165 HD
HETATM   31  H   UNK     0      11.540  11.803   6.689  0.00  0.00     0.165 HD
HETATM   32  H   UNK     0      14.703  11.643   5.730  0.00  0.00     0.165 HD
ENDROOT
BRANCH   6  33
HETATM   33  C   UNK     0      12.687   5.541   6.925  0.00  0.00     0.051 C 
BRANCH  33  34
HETATM   34  C   UNK     0      11.232   5.814   7.226  0.00  0.00     0.114 C 
BRANCH  34  35
HETATM   35  C   UNK     0      10.426   5.178   6.145  0.00  0.00     0.139 C 
HETATM   36  O   UNK     0       9.253   5.586   5.901  0.00  0.00    -0.650 OA
BRANCH  35  37
HETATM   37  O   UNK     0      10.908   4.134   5.366  0.00  0.00    -0.776 OA
HETATM   38  H   UNK     0      10.416   3.803   4.551  0.00  0.00     0.167 HD
ENDBRANCH  35  37
ENDBRANCH  34  35
ENDBRANCH  33  34
ENDBRANCH   6  33
BRANCH  27  39
HETATM   39  C   UNK     0      11.912  12.687   2.027  0.00  0.00     0.051 C 
BRANCH  39  40
HETATM   40  C   UNK     0      12.498  13.723   1.178  0.00  0.00     0.114 C 
BRANCH  40  41
HETATM   41  C   UNK     0      12.205  15.127   1.362  0.00  0.00     0.139 C 
HETATM   42  O   UNK     0      11.468  15.559   2.258  0.00  0.00    -0.650 OA
BRANCH  41  43
HETATM   43  O   UNK     0      12.788  16.077   0.475  0.00  0.00    -0.776 OA
HETATM   44  H   UNK     0      13.552  16.608   0.873  0.00  0.00     0.167 HD
ENDBRANCH  41  43
ENDBRANCH  40  41
ENDBRANCH  39  40
ENDBRANCH  27  39
BRANCH  11  45
HETATM   45  C   UNK     0      13.109  11.660  12.169  0.00  0.00     0.051 C 
BRANCH  45  46
HETATM   46  C   UNK     0      14.029  12.810  11.975  0.00  0.00     0.114 C 
BRANCH  46  47
HETATM   47  C   UNK     0      15.257  12.531  12.774  0.00  0.00     0.139 C 
HETATM   48  O   UNK     0      15.177  11.745  13.728  0.00  0.00    -0.650 OA
BRANCH  47  49
HETATM   49  O   UNK     0      16.450  13.133  12.461  0.00  0.00    -0.776 OA
HETATM   50  H   UNK     0      17.049  12.793  11.699  0.00  0.00     0.167 HD
ENDBRANCH  47  49
ENDBRANCH  46  47
ENDBRANCH  45  46
ENDBRANCH  11  45
BRANCH  18  51
HETATM   51  C   UNK     0      13.371  16.163   6.837  0.00  0.00     0.051 C 
BRANCH  51  52
HETATM   52  C   UNK     0      12.234  17.173   6.888  0.00  0.00     0.114 C 
BRANCH  52  53
HETATM   53  C   UNK     0      11.375  17.092   5.691  0.00  0.00     0.139 C 
HETATM   54  O   UNK     0      10.213  16.666   5.787  0.00  0.00    -0.650 OA
BRANCH  53  55
HETATM   55  O   UNK     0      11.869  17.489   4.472  0.00  0.00    -0.776 OA
HETATM   56  H   UNK     0      11.331  17.710   3.667  0.00  0.00     0.167 HD
ENDBRANCH  53  55
ENDBRANCH  52  53
ENDBRANCH  51  52
ENDBRANCH  18  51
TORSDOF 16
ENDMDL
MODEL 10
REMARK VINA RESULT:      -9.0     28.010     31.331
REMARK  16 active torsions:
REMARK  status: ('A' for Active; 'I' for Inactive)
REMARK    1  A    between atoms: C_6  and  C_7 
REMARK    2  A    between atoms: C_7  and  C_8 
REMARK    3  A    between atoms: C_8  and  C_9 
REMARK    4  A    between atoms: C_9  and  O_11 
REMARK    5  A    between atoms: C_16  and  C_17 
REMARK    6  A    between atoms: C_17  and  C_18 
REMARK    7  A    between atoms: C_18  and  C_19 
REMARK    8  A    between atoms: C_19  and  O_21 
REMARK    9  A    between atoms: C_28  and  C_29 
REMARK   10  A    between atoms: C_29  and  C_30 
REMARK   11  A    between atoms: C_30  and  C_31 
REMARK   12  A    between atoms: C_31  and  O_33 
REMARK   13  A    between atoms: C_42  and  C_43 
REMARK   14  A    between atoms: C_43  and  C_44 
REMARK   15  A    between atoms: C_44  and  C_45 
REMARK   16  A    between atoms: C_45  and  O_47 
ROOT
HETATM    1  C   UNK     0      13.272   8.563  12.196  0.00  0.00     0.051 C 
HETATM    2  C   UNK     0      13.072   8.379  10.706  0.00  0.00    -0.031 A 
HETATM    3  C   UNK     0      12.155   8.983   9.860  0.00  0.00     0.021 A 
HETATM    4  N   UNK     0      12.319   8.492   8.608  0.00  0.00    -0.361 N 
HETATM    5  C   UNK     0      13.327   7.595   8.637  0.00  0.00     0.022 A 
HETATM    6  C   UNK     0      13.819   7.498   9.934  0.00  0.00    -0.027 A 
HETATM    7  C   UNK     0      13.963   6.842   7.510  0.00  0.00     0.115 C 
HETATM    8  C   UNK     0      14.230   7.622   6.235  0.00  0.00     0.021 A 
HETATM    9  N   UNK     0      14.600   8.905   6.101  0.00  0.00    -0.361 N 
HETATM   10  C   UNK     0      14.632   9.197   4.783  0.00  0.00     0.022 A 
HETATM   11  C   UNK     0      14.283   8.068   4.048  0.00  0.00    -0.027 A 
HETATM   12  C   UNK     0      14.029   7.072   4.956  0.00  0.00    -0.031 A 
HETATM   13  C   UNK     0      13.617   5.658   4.611  0.00  0.00     0.051 C 
HETATM   14  C   UNK     0      14.939  10.559   4.169  0.00  0.00     0.115 C 
HETATM   15  C   UNK     0      13.966  11.653   4.578  0.00  0.00     0.021 A 
HETATM   16  N   UNK     0      13.686  12.080   5.823  0.00  0.00    -0.361 N 
HETATM   17  C   UNK     0      12.726  13.006   5.764  0.00  0.00     0.022 A 
HETATM   18  C   UNK     0      12.369  13.198   4.415  0.00  0.00    -0.027 A 
HETATM   19  C   UNK     0      13.154  12.346   3.682  0.00  0.00    -0.031 A 
HETATM   20  C   UNK     0      13.117  12.257   2.167  0.00  0.00     0.051 C 
HETATM   21  C   UNK     0      12.013  13.739   6.878  0.00  0.00     0.115 C 
HETATM   22  C   UNK     0      11.779  12.989   8.168  0.00  0.00     0.022 A 
HETATM   23  N   UNK     0      11.415  11.711   8.332  0.00  0.00    -0.361 N 
HETATM   24  C   UNK     0      11.465  11.421   9.647  0.00  0.00     0.021 A 
HETATM   25  C   UNK     0      11.861  12.543  10.350  0.00  0.00    -0.031 A 
HETATM   26  C   UNK     0      12.024  12.724  11.844  0.00  0.00     0.051 C 
HETATM   27  C   UNK     0      12.068  13.560   9.425  0.00  0.00    -0.027 A 
HETATM   28  C   UNK     0      11.228  10.076  10.312  0.00  0.00     0.115 C 
HETATM   29  H   UNK     0      11.696   8.753   7.722  0.00  0.00     0.165 HD
HETATM   30  H   UNK     0      14.887   9.594   6.933  0.00  0.00     0.165 HD
HETATM   31  H   UNK     0      14.210  11.757   6.760  0.00  0.00     0.165 HD
HETATM   32  H   UNK     0      11.077  11.012   7.522  0.00  0.00     0.165 HD
ENDROOT
BRANCH   6  33
HETATM   33  C   UNK     0      14.928   6.641  10.489  0.00  0.00     0.051 C 
BRANCH  33  34
HETATM   34  C   UNK     0      14.430   5.247  10.786  0.00  0.00     0.114 C 
BRANCH  34  35
HETATM   35  C   UNK     0      15.367   4.289  10.133  0.00  0.00     0.139 C 
HETATM   36  O   UNK     0      15.592   4.365   8.890  0.00  0.00    -0.650 OA
BRANCH  35  37
HETATM   37  O   UNK     0      16.029   3.291  10.837  0.00  0.00    -0.776 OA
HETATM   38  H   UNK     0      15.785   2.318  10.742  0.00  0.00     0.167 HD
ENDBRANCH  35  37
ENDBRANCH  34  35
ENDBRANCH  33  34
ENDBRANCH   6  33
BRANCH  27  39
HETATM   39  C   UNK     0      12.436  14.948   9.815  0.00  0.00     0.051 C 
BRANCH  39  40
HETATM   40  C   UNK     0      13.848  15.327   9.781  0.00  0.00     0.114 C 
BRANCH  40  41
HETATM   41  C   UNK     0      14.766  14.973  10.841  0.00  0.00     0.139 C 
HETATM   42  O   UNK     0      15.813  14.339  10.654  0.00  0.00    -0.650 OA
BRANCH  41  43
HETATM   43  O   UNK     0      14.467  15.368  12.175  0.00  0.00    -0.776 OA
HETATM   44  H   UNK     0      15.228  15.832  12.656  0.00  0.00     0.167 HD
ENDBRANCH  41  43
ENDBRANCH  40  41
ENDBRANCH  39  40
ENDBRANCH  27  39
BRANCH  11  45
HETATM   45  C   UNK     0      14.189   7.909   2.554  0.00  0.00     0.051 C 
BRANCH  45  46
HETATM   46  C   UNK     0      13.113   8.717   1.925  0.00  0.00     0.114 C 
BRANCH  46  47
HETATM   47  C   UNK     0      13.185   8.480   0.455  0.00  0.00     0.139 C 
HETATM   48  O   UNK     0      14.176   8.892  -0.164  0.00  0.00    -0.650 OA
BRANCH  47  49
HETATM   49  O   UNK     0      12.175   7.823  -0.201  0.00  0.00    -0.776 OA
HETATM   50  H   UNK     0      11.723   8.213  -1.036  0.00  0.00     0.167 HD
ENDBRANCH  47  49
ENDBRANCH  46  47
ENDBRANCH  45  46
ENDBRANCH  11  45
BRANCH  18  51
HETATM   51  C   UNK     0      11.352  14.156   3.852  0.00  0.00     0.051 C 
BRANCH  51  52
HETATM   52  C   UNK     0      12.140  15.311   3.253  0.00  0.00     0.114 C 
BRANCH  52  53
HETATM   53  C   UNK     0      11.751  15.574   1.854  0.00  0.00     0.139 C 
HETATM   54  O   UNK     0      10.709  15.081   1.395  0.00  0.00    -0.650 OA
BRANCH  53  55
HETATM   55  O   UNK     0      12.551  16.363   1.064  0.00  0.00    -0.776 OA
HETATM   56  H   UNK     0      12.242  17.087   0.458  0.00  0.00     0.167 HD
ENDBRANCH  53  55
ENDBRANCH  52  53
ENDBRANCH  51  52
ENDBRANCH  18  51
TORSDOF 16
ENDMDL
MODEL 11
REMARK VINA RESULT:      -9.0      1.993      2.612
REMARK  16 active torsions:
REMARK  status: ('A' for Active; 'I' for Inactive)
REMARK    1  A    between atoms: C_6  and  C_7 
REMARK    2  A    between atoms: C_7  and  C_8 
REMARK    3  A    between atoms: C_8  and  C_9 
REMARK    4  A    between atoms: C_9  and  O_11 
REMARK    5  A    between atoms: C_16  and  C_17 
REMARK    6  A    between atoms: C_17  and  C_18 
REMARK    7  A    between atoms: C_18  and  C_19 
REMARK    8  A    between atoms: C_19  and  O_21 
REMARK    9  A    between atoms: C_28  and  C_29 
REMARK   10  A    between atoms: C_29  and  C_30 
REMARK   11  A    between atoms: C_30  and  C_31 
REMARK   12  A    between atoms: C_31  and  O_33 
REMARK   13  A    between atoms: C_42  and  C_43 
REMARK   14  A    between atoms: C_43  and  C_44 
REMARK   15  A    between atoms: C_44  and  C_45 
REMARK   16  A    between atoms: C_45  and  O_47 
ROOT
HETATM    1  C   UNK     0     -10.620  -2.507  18.790  0.00  0.00     0.051 C 
HETATM    2  C   UNK     0     -10.010  -3.828  18.367  0.00  0.00    -0.031 A 
HETATM    3  C   UNK     0      -8.676  -4.195  18.288  0.00  0.00     0.021 A 
HETATM    4  N   UNK     0      -8.594  -5.466  17.830  0.00  0.00    -0.361 N 
HETATM    5  C   UNK     0      -9.848  -5.921  17.624  0.00  0.00     0.022 A 
HETATM    6  C   UNK     0     -10.758  -4.920  17.947  0.00  0.00    -0.027 A 
HETATM    7  C   UNK     0     -10.311  -7.284  17.213  0.00  0.00     0.115 C 
HETATM    8  C   UNK     0      -9.619  -8.465  17.871  0.00  0.00     0.021 A 
HETATM    9  N   UNK     0      -9.163  -8.573  19.128  0.00  0.00    -0.361 N 
HETATM   10  C   UNK     0      -8.538  -9.764  19.247  0.00  0.00     0.022 A 
HETATM   11  C   UNK     0      -8.602 -10.446  18.035  0.00  0.00    -0.027 A 
HETATM   12  C   UNK     0      -9.282  -9.633  17.164  0.00  0.00    -0.031 A 
HETATM   13  C   UNK     0      -9.597  -9.967  15.723  0.00  0.00     0.051 C 
HETATM   14  C   UNK     0      -7.813 -10.282  20.485  0.00  0.00     0.115 C 
HETATM   15  C   UNK     0      -6.643  -9.414  20.922  0.00  0.00     0.021 A 
HETATM   16  N   UNK     0      -6.669  -8.112  21.264  0.00  0.00    -0.361 N 
HETATM   17  C   UNK     0      -5.425  -7.700  21.516  0.00  0.00     0.022 A 
HETATM   18  C   UNK     0      -4.547  -8.788  21.339  0.00  0.00    -0.027 A 
HETATM   19  C   UNK     0      -5.323  -9.856  20.968  0.00  0.00    -0.031 A 
HETATM   20  C   UNK     0      -4.775 -11.248  20.710  0.00  0.00     0.051 C 
HETATM   21  C   UNK     0      -4.909  -6.323  21.868  0.00  0.00     0.115 C 
HETATM   22  C   UNK     0      -5.616  -5.137  21.255  0.00  0.00     0.022 A 
HETATM   23  N   UNK     0      -6.084  -5.003  20.007  0.00  0.00    -0.361 N 
HETATM   24  C   UNK     0      -6.770  -3.845  19.934  0.00  0.00     0.021 A 
HETATM   25  C   UNK     0      -6.733  -3.212  21.162  0.00  0.00    -0.031 A 
HETATM   26  C   UNK     0      -7.319  -1.874  21.563  0.00  0.00     0.051 C 
HETATM   27  C   UNK     0      -5.999  -4.019  22.023  0.00  0.00    -0.027 A 
HETATM   28  C   UNK     0      -7.559  -3.304  18.754  0.00  0.00     0.115 C 
HETATM   29  H   UNK     0      -7.651  -6.020  17.617  0.00  0.00     0.165 HD
HETATM   30  H   UNK     0      -9.323  -7.832  19.949  0.00  0.00     0.165 HD
HETATM   31  H   UNK     0      -7.589  -7.482  21.377  0.00  0.00     0.165 HD
HETATM   32  H   UNK     0      -5.899  -5.706  19.154  0.00  0.00     0.165 HD
ENDROOT
BRANCH   6  33
HETATM   33  C   UNK     0     -12.264  -4.922  17.886  0.00  0.00     0.051 C 
BRANCH  33  34
HETATM   34  C   UNK     0     -12.744  -4.554  16.503  0.00  0.00     0.114 C 
BRANCH  34  35
HETATM   35  C   UNK     0     -14.231  -4.670  16.500  0.00  0.00     0.139 C 
HETATM   36  O   UNK     0     -14.908  -4.161  15.560  0.00  0.00    -0.650 OA
BRANCH  35  37
HETATM   37  O   UNK     0     -14.933  -5.328  17.503  0.00  0.00    -0.776 OA
HETATM   38  H   UNK     0     -15.476  -4.830  18.190  0.00  0.00     0.167 HD
ENDBRANCH  35  37
ENDBRANCH  34  35
ENDBRANCH  33  34
ENDBRANCH   6  33
BRANCH  27  39
HETATM   39  C   UNK     0      -5.682  -3.632  23.425  0.00  0.00     0.051 C 
BRANCH  39  40
HETATM   40  C   UNK     0      -4.543  -2.745  23.659  0.00  0.00     0.114 C 
BRANCH  40  41
HETATM   41  C   UNK     0      -3.378  -2.745  22.803  0.00  0.00     0.139 C 
HETATM   42  O   UNK     0      -2.566  -3.679  22.754  0.00  0.00    -0.650 OA
BRANCH  41  43
HETATM   43  O   UNK     0      -3.135  -1.619  21.966  0.00  0.00    -0.776 OA
HETATM   44  H   UNK     0      -3.195  -1.814  20.974  0.00  0.00     0.167 HD
ENDBRANCH  41  43
ENDBRANCH  40  41
ENDBRANCH  39  40
ENDBRANCH  27  39
BRANCH  11  45
HETATM   45  C   UNK     0      -8.057 -11.805  17.690  0.00  0.00     0.051 C 
BRANCH  45  46
HETATM   46  C   UNK     0      -6.653 -11.790  17.206  0.00  0.00     0.114 C 
BRANCH  46  47
HETATM   47  C   UNK     0      -6.673 -12.214  15.777  0.00  0.00     0.139 C 
HETATM   48  O   UNK     0      -7.155 -13.320  15.494  0.00  0.00    -0.650 OA
BRANCH  47  49
HETATM   49  O   UNK     0      -6.169 -11.399  14.795  0.00  0.00    -0.776 OA
HETATM   50  H   UNK     0      -5.160 -11.259  14.667  0.00  0.00     0.167 HD
ENDBRANCH  47  49
ENDBRANCH  46  47
ENDBRANCH  45  46
ENDBRANCH  11  45
BRANCH  18  51
HETATM   51  C   UNK     0      -3.053  -8.815  21.534  0.00  0.00     0.051 C 
BRANCH  51  52
HETATM   52  C   UNK     0      -2.817  -9.296  22.958  0.00  0.00     0.114 C 
BRANCH  52  53
HETATM   53  C   UNK     0      -1.426  -9.065  23.392  0.00  0.00     0.139 C 
HETATM   54  O   UNK     0      -0.839  -8.020  23.069  0.00  0.00    -0.650 OA
BRANCH  53  55
HETATM   55  O   UNK     0      -0.785 -10.014  24.152  0.00  0.00    -0.776 OA
HETATM   56  H   UNK     0       0.077 -10.453  23.932  0.00  0.00     0.167 HD
ENDBRANCH  53  55
ENDBRANCH  52  53
ENDBRANCH  51  52
ENDBRANCH  18  51
TORSDOF 16
ENDMDL
MODEL 12
REMARK VINA RESULT:      -9.0     29.689     32.889
REMARK  16 active torsions:
REMARK  status: ('A' for Active; 'I' for Inactive)
REMARK    1  A    between atoms: C_6  and  C_7 
REMARK    2  A    between atoms: C_7  and  C_8 
REMARK    3  A    between atoms: C_8  and  C_9 
REMARK    4  A    between atoms: C_9  and  O_11 
REMARK    5  A    between atoms: C_16  and  C_17 
REMARK    6  A    between atoms: C_17  and  C_18 
REMARK    7  A    between atoms: C_18  and  C_19 
REMARK    8  A    between atoms: C_19  and  O_21 
REMARK    9  A    between atoms: C_28  and  C_29 
REMARK   10  A    between atoms: C_29  and  C_30 
REMARK   11  A    between atoms: C_30  and  C_31 
REMARK   12  A    between atoms: C_31  and  O_33 
REMARK   13  A    between atoms: C_42  and  C_43 
REMARK   14  A    between atoms: C_43  and  C_44 
REMARK   15  A    between atoms: C_44  and  C_45 
REMARK   16  A    between atoms: C_45  and  O_47 
ROOT
HETATM    1  C   UNK     0      11.969  17.575   5.570  0.00  0.00     0.051 C 
HETATM    2  C   UNK     0      11.963  16.179   6.161  0.00  0.00    -0.031 A 
HETATM    3  C   UNK     0      11.464  15.001   5.629  0.00  0.00     0.021 A 
HETATM    4  N   UNK     0      11.649  14.000   6.523  0.00  0.00    -0.361 N 
HETATM    5  C   UNK     0      12.262  14.514   7.609  0.00  0.00     0.022 A 
HETATM    6  C   UNK     0      12.471  15.876   7.418  0.00  0.00    -0.027 A 
HETATM    7  C   UNK     0      12.771  13.818   8.833  0.00  0.00     0.115 C 
HETATM    8  C   UNK     0      13.497  12.502   8.617  0.00  0.00     0.021 A 
HETATM    9  N   UNK     0      14.307  12.150   7.607  0.00  0.00    -0.361 N 
HETATM   10  C   UNK     0      14.653  10.857   7.778  0.00  0.00     0.022 A 
HETATM   11  C   UNK     0      14.057  10.365   8.936  0.00  0.00    -0.027 A 
HETATM   12  C   UNK     0      13.328  11.396   9.470  0.00  0.00    -0.031 A 
HETATM   13  C   UNK     0      12.511  11.324  10.740  0.00  0.00     0.051 C 
HETATM   14  C   UNK     0      15.511  10.021   6.833  0.00  0.00     0.115 C 
HETATM   15  C   UNK     0      14.927   9.874   5.437  0.00  0.00     0.021 A 
HETATM   16  N   UNK     0      14.615  10.855   4.570  0.00  0.00    -0.361 N 
HETATM   17  C   UNK     0      14.061  10.318   3.481  0.00  0.00     0.022 A 
HETATM   18  C   UNK     0      14.018   8.919   3.642  0.00  0.00    -0.027 A 
HETATM   19  C   UNK     0      14.565   8.654   4.871  0.00  0.00    -0.031 A 
HETATM   20  C   UNK     0      14.747   7.254   5.429  0.00  0.00     0.051 C 
HETATM   21  C   UNK     0      13.476  10.986   2.257  0.00  0.00     0.115 C 
HETATM   22  C   UNK     0      12.789  12.318   2.451  0.00  0.00     0.022 A 
HETATM   23  N   UNK     0      11.981  12.697   3.449  0.00  0.00    -0.361 N 
HETATM   24  C   UNK     0      11.712  14.010   3.301  0.00  0.00     0.021 A 
HETATM   25  C   UNK     0      12.354  14.485   2.173  0.00  0.00    -0.031 A 
HETATM   26  C   UNK     0      12.324  15.876   1.574  0.00  0.00     0.051 C 
HETATM   27  C   UNK     0      13.050  13.420   1.612  0.00  0.00    -0.027 A 
HETATM   28  C   UNK     0      10.917  14.907   4.233  0.00  0.00     0.115 C 
HETATM   29  H   UNK     0      11.309  12.946   6.397  0.00  0.00     0.165 HD
HETATM   30  H   UNK     0      14.676  12.827   6.798  0.00  0.00     0.165 HD
HETATM   31  H   UNK     0      14.833  11.946   4.708  0.00  0.00     0.165 HD
HETATM   32  H   UNK     0      11.558  12.031   4.245  0.00  0.00     0.165 HD
ENDROOT
BRANCH   6  33
HETATM   33  C   UNK     0      13.106  16.897   8.327  0.00  0.00     0.051 C 
BRANCH  33  34
HETATM   34  C   UNK     0      13.131  16.401   9.753  0.00  0.00     0.114 C 
BRANCH  34  35
HETATM   35  C   UNK     0      14.442  16.801  10.342  0.00  0.00     0.139 C 
HETATM   36  O   UNK     0      14.915  17.954  10.119  0.00  0.00    -0.650 OA
BRANCH  35  37
HETATM   37  O   UNK     0      15.192  15.953  11.147  0.00  0.00    -0.776 OA
HETATM   38  H   UNK     0      16.102  15.622  10.873  0.00  0.00     0.167 HD
ENDBRANCH  35  37
ENDBRANCH  34  35
ENDBRANCH  33  34
ENDBRANCH   6  33
BRANCH  27  39
HETATM   39  C   UNK     0      13.810  13.530   0.337  0.00  0.00     0.051 C 
BRANCH  39  40
HETATM   40  C   UNK     0      14.465  12.332  -0.186  0.00  0.00     0.114 C 
BRANCH  40  41
HETATM   41  C   UNK     0      14.694  12.134  -1.599  0.00  0.00     0.139 C 
HETATM   42  O   UNK     0      14.955  11.032  -2.102  0.00  0.00    -0.650 OA
BRANCH  41  43
HETATM   43  O   UNK     0      14.621  13.254  -2.475  0.00  0.00    -0.776 OA
HETATM   44  H   UNK     0      14.580  14.151  -2.005  0.00  0.00     0.167 HD
ENDBRANCH  41  43
ENDBRANCH  40  41
ENDBRANCH  39  40
ENDBRANCH  27  39
BRANCH  11  45
HETATM   45  C   UNK     0      14.158   8.988   9.534  0.00  0.00     0.051 C 
BRANCH  45  46
HETATM   46  C   UNK     0      13.362   7.957   8.821  0.00  0.00     0.114 C 
BRANCH  46  47
HETATM   47  C   UNK     0      12.002   7.948   9.432  0.00  0.00     0.139 C 
HETATM   48  O   UNK     0      11.858   7.437  10.552  0.00  0.00    -0.650 OA
BRANCH  47  49
HETATM   49  O   UNK     0      10.930   8.493   8.770  0.00  0.00    -0.776 OA
HETATM   50  H   UNK     0      11.046   9.204   8.039  0.00  0.00     0.167 HD
ENDBRANCH  47  49
ENDBRANCH  46  47
ENDBRANCH  45  46
ENDBRANCH  11  45
BRANCH  18  51
HETATM   51  C   UNK     0      13.505   7.889   2.670  0.00  0.00     0.051 C 
BRANCH  51  52
HETATM   52  C   UNK     0      14.502   7.853   1.521  0.00  0.00     0.114 C 
BRANCH  52  53
HETATM   53  C   UNK     0      13.878   8.232   0.239  0.00  0.00     0.139 C 
HETATM   54  O   UNK     0      12.643   8.202   0.116  0.00  0.00    -0.650 OA
BRANCH  53  55
HETATM   55  O   UNK     0      14.670   8.614  -0.816  0.00  0.00    -0.776 OA
HETATM   56  H   UNK     0      14.598   9.465  -1.323  0.00  0.00     0.167 HD
ENDBRANCH  53  55
ENDBRANCH  52  53
ENDBRANCH  51  52
ENDBRANCH  18  51
TORSDOF 16
ENDMDL
MODEL 13
REMARK VINA RESULT:      -9.0      4.693      8.832
REMARK  16 active torsions:
REMARK  status: ('A' for Active; 'I' for Inactive)
REMARK    1  A    between atoms: C_6  and  C_7 
REMARK    2  A    between atoms: C_7  and  C_8 
REMARK    3  A    between atoms: C_8  and  C_9 
REMARK    4  A    between atoms: C_9  and  O_11 
REMARK    5  A    between atoms: C_16  and  C_17 
REMARK    6  A    between atoms: C_17  and  C_18 
REMARK    7  A    between atoms: C_18  and  C_19 
REMARK    8  A    between atoms: C_19  and  O_21 
REMARK    9  A    between atoms: C_28  and  C_29 
REMARK   10  A    between atoms: C_29  and  C_30 
REMARK   11  A    between atoms: C_30  and  C_31 
REMARK   12  A    between atoms: C_31  and  O_33 
REMARK   13  A    between atoms: C_42  and  C_43 
REMARK   14  A    between atoms: C_43  and  C_44 
REMARK   15  A    between atoms: C_44  and  C_45 
REMARK   16  A    between atoms: C_45  and  O_47 
ROOT
HETATM    1  C   UNK     0      -7.939  -9.878  18.711  0.00  0.00     0.051 C 
HETATM    2  C   UNK     0      -6.480 -10.255  18.874  0.00  0.00    -0.031 A 
HETATM    3  C   UNK     0      -5.350  -9.457  18.788  0.00  0.00     0.021 A 
HETATM    4  N   UNK     0      -4.252 -10.227  18.973  0.00  0.00    -0.361 N 
HETATM    5  C   UNK     0      -4.657 -11.496  19.183  0.00  0.00     0.022 A 
HETATM    6  C   UNK     0      -6.046 -11.550  19.125  0.00  0.00    -0.027 A 
HETATM    7  C   UNK     0      -3.850 -12.709  19.529  0.00  0.00     0.115 C 
HETATM    8  C   UNK     0      -2.749 -12.524  20.558  0.00  0.00     0.021 A 
HETATM    9  N   UNK     0      -2.741 -11.731  21.640  0.00  0.00    -0.361 N 
HETATM   10  C   UNK     0      -1.521 -11.815  22.213  0.00  0.00     0.022 A 
HETATM   11  C   UNK     0      -0.725 -12.695  21.484  0.00  0.00    -0.027 A 
HETATM   12  C   UNK     0      -1.492 -13.145  20.440  0.00  0.00    -0.031 A 
HETATM   13  C   UNK     0      -1.041 -14.128  19.384  0.00  0.00     0.051 C 
HETATM   14  C   UNK     0      -1.042 -11.034  23.433  0.00  0.00     0.115 C 
HETATM   15  C   UNK     0      -1.053  -9.526  23.242  0.00  0.00     0.021 A 
HETATM   16  N   UNK     0      -2.105  -8.745  22.935  0.00  0.00    -0.361 N 
HETATM   17  C   UNK     0      -1.688  -7.486  22.786  0.00  0.00     0.022 A 
HETATM   18  C   UNK     0      -0.298  -7.443  23.017  0.00  0.00    -0.027 A 
HETATM   19  C   UNK     0       0.087  -8.727  23.303  0.00  0.00    -0.031 A 
HETATM   20  C   UNK     0       1.510  -9.123  23.652  0.00  0.00     0.051 C 
HETATM   21  C   UNK     0      -2.455  -6.250  22.374  0.00  0.00     0.115 C 
HETATM   22  C   UNK     0      -3.583  -6.426  21.384  0.00  0.00     0.022 A 
HETATM   23  N   UNK     0      -3.620  -7.211  20.300  0.00  0.00    -0.361 N 
HETATM   24  C   UNK     0      -4.868  -7.171  19.791  0.00  0.00     0.021 A 
HETATM   25  C   UNK     0      -5.650  -6.331  20.560  0.00  0.00    -0.031 A 
HETATM   26  C   UNK     0      -7.099  -5.935  20.366  0.00  0.00     0.051 C 
HETATM   27  C   UNK     0      -4.850  -5.842  21.586  0.00  0.00    -0.027 A 
HETATM   28  C   UNK     0      -5.420  -7.966  18.620  0.00  0.00     0.115 C 
HETATM   29  H   UNK     0      -3.196  -9.875  18.913  0.00  0.00     0.165 HD
HETATM   30  H   UNK     0      -3.610 -11.148  22.032  0.00  0.00     0.165 HD
HETATM   31  H   UNK     0      -3.173  -9.080  22.868  0.00  0.00     0.165 HD
HETATM   32  H   UNK     0      -2.753  -7.769  19.859  0.00  0.00     0.165 HD
ENDROOT
BRANCH   6  33
HETATM   33  C   UNK     0      -6.979 -12.724  19.286  0.00  0.00     0.051 C 
BRANCH  33  34
HETATM   34  C   UNK     0      -7.076 -13.135  20.736  0.00  0.00     0.114 C 
BRANCH  34  35
HETATM   35  C   UNK     0      -8.197 -12.363  21.345  0.00  0.00     0.139 C 
HETATM   36  O   UNK     0      -7.984 -11.604  22.335  0.00  0.00    -0.650 OA
BRANCH  35  37
HETATM   37  O   UNK     0      -9.500 -12.432  20.869  0.00  0.00    -0.776 OA
HETATM   38  H   UNK     0      -9.949 -11.648  20.423  0.00  0.00     0.167 HD
ENDBRANCH  35  37
ENDBRANCH  34  35
ENDBRANCH  33  34
ENDBRANCH   6  33
BRANCH  27  39
HETATM   39  C   UNK     0      -5.328  -4.845  22.582  0.00  0.00     0.051 C 
BRANCH  39  40
HETATM   40  C   UNK     0      -5.081  -3.427  22.318  0.00  0.00     0.114 C 
BRANCH  40  41
HETATM   41  C   UNK     0      -4.048  -2.684  23.005  0.00  0.00     0.139 C 
HETATM   42  O   UNK     0      -3.800  -2.815  24.211  0.00  0.00    -0.650 OA
BRANCH  41  43
HETATM   43  O   UNK     0      -3.267  -1.748  22.271  0.00  0.00    -0.776 OA
HETATM   44  H   UNK     0      -3.679  -1.455  21.393  0.00  0.00     0.167 HD
ENDBRANCH  41  43
ENDBRANCH  40  41
ENDBRANCH  39  40
ENDBRANCH  27  39
BRANCH  11  45
HETATM   45  C   UNK     0       0.698 -13.111  21.743  0.00  0.00     0.051 C 
BRANCH  45  46
HETATM   46  C   UNK     0       1.704 -12.070  21.409  0.00  0.00     0.114 C 
BRANCH  46  47
HETATM   47  C   UNK     0       2.930 -12.775  20.939  0.00  0.00     0.139 C 
HETATM   48  O   UNK     0       3.358 -12.526  19.803  0.00  0.00    -0.650 OA
BRANCH  47  49
HETATM   49  O   UNK     0       3.572 -13.682  21.744  0.00  0.00    -0.776 OA
HETATM   50  H   UNK     0       3.915 -14.581  21.386  0.00  0.00     0.167 HD
ENDBRANCH  47  49
ENDBRANCH  46  47
ENDBRANCH  45  46
ENDBRANCH  11  45
BRANCH  18  51
HETATM   51  C   UNK     0       0.609  -6.240  22.987  0.00  0.00     0.051 C 
BRANCH  51  52
HETATM   52  C   UNK     0       0.246  -5.403  24.205  0.00  0.00     0.114 C 
BRANCH  52  53
HETATM   53  C   UNK     0       0.269  -3.958  23.905  0.00  0.00     0.139 C 
HETATM   54  O   UNK     0       1.319  -3.420  23.519  0.00  0.00    -0.650 OA
BRANCH  53  55
HETATM   55  O   UNK     0      -0.875  -3.214  24.058  0.00  0.00    -0.776 OA
HETATM   56  H   UNK     0      -0.919  -2.257  24.320  0.00  0.00     0.167 HD
ENDBRANCH  53  55
ENDBRANCH  52  53
ENDBRANCH  51  52
ENDBRANCH  18  51
TORSDOF 16
ENDMDL
MODEL 14
REMARK VINA RESULT:      -8.9     28.166     32.083
REMARK  16 active torsions:
REMARK  status: ('A' for Active; 'I' for Inactive)
REMARK    1  A    between atoms: C_6  and  C_7 
REMARK    2  A    between atoms: C_7  and  C_8 
REMARK    3  A    between atoms: C_8  and  C_9 
REMARK    4  A    between atoms: C_9  and  O_11 
REMARK    5  A    between atoms: C_16  and  C_17 
REMARK    6  A    between atoms: C_17  and  C_18 
REMARK    7  A    between atoms: C_18  and  C_19 
REMARK    8  A    between atoms: C_19  and  O_21 
REMARK    9  A    between atoms: C_28  and  C_29 
REMARK   10  A    between atoms: C_29  and  C_30 
REMARK   11  A    between atoms: C_30  and  C_31 
REMARK   12  A    between atoms: C_31  and  O_33 
REMARK   13  A    between atoms: C_42  and  C_43 
REMARK   14  A    between atoms: C_43  and  C_44 
REMARK   15  A    between atoms: C_44  and  C_45 
REMARK   16  A    between atoms: C_45  and  O_47 
ROOT
HETATM    1  C   UNK     0      13.485   6.310   4.034  0.00  0.00     0.051 C 
HETATM    2  C   UNK     0      13.749   7.140   5.274  0.00  0.00    -0.031 A 
HETATM    3  C   UNK     0      14.401   8.357   5.397  0.00  0.00     0.021 A 
HETATM    4  N   UNK     0      14.430   8.712   6.703  0.00  0.00    -0.361 N 
HETATM    5  C   UNK     0      13.804   7.752   7.415  0.00  0.00     0.022 A 
HETATM    6  C   UNK     0      13.368   6.752   6.552  0.00  0.00    -0.027 A 
HETATM    7  C   UNK     0      13.484   7.707   8.876  0.00  0.00     0.115 C 
HETATM    8  C   UNK     0      12.968   8.991   9.501  0.00  0.00     0.021 A 
HETATM    9  N   UNK     0      12.170   9.924   8.958  0.00  0.00    -0.361 N 
HETATM   10  C   UNK     0      12.048  10.937   9.842  0.00  0.00     0.022 A 
HETATM   11  C   UNK     0      12.779  10.644  10.990  0.00  0.00    -0.027 A 
HETATM   12  C   UNK     0      13.361   9.420  10.782  0.00  0.00    -0.031 A 
HETATM   13  C   UNK     0      14.248   8.695  11.769  0.00  0.00     0.051 C 
HETATM   14  C   UNK     0      11.283  12.239   9.620  0.00  0.00     0.115 C 
HETATM   15  C   UNK     0      11.805  13.069   8.458  0.00  0.00     0.021 A 
HETATM   16  N   UNK     0      11.906  12.701   7.167  0.00  0.00    -0.361 N 
HETATM   17  C   UNK     0      12.478  13.688   6.473  0.00  0.00     0.022 A 
HETATM   18  C   UNK     0      12.754  14.754   7.353  0.00  0.00    -0.027 A 
HETATM   19  C   UNK     0      12.327  14.353   8.593  0.00  0.00    -0.031 A 
HETATM   20  C   UNK     0      12.405  15.224   9.834  0.00  0.00     0.051 C 
HETATM   21  C   UNK     0      12.877  13.748   5.016  0.00  0.00     0.115 C 
HETATM   22  C   UNK     0      13.350  12.467   4.370  0.00  0.00     0.022 A 
HETATM   23  N   UNK     0      14.141  11.519   4.888  0.00  0.00    -0.361 N 
HETATM   24  C   UNK     0      14.186  10.486   4.023  0.00  0.00     0.021 A 
HETATM   25  C   UNK     0      13.414  10.780   2.916  0.00  0.00    -0.031 A 
HETATM   26  C   UNK     0      13.186   9.956   1.666  0.00  0.00     0.051 C 
HETATM   27  C   UNK     0      12.869  12.044   3.115  0.00  0.00    -0.027 A 
HETATM   28  C   UNK     0      14.877   9.146   4.211  0.00  0.00     0.115 C 
HETATM   29  H   UNK     0      14.928   9.619   7.118  0.00  0.00     0.165 HD
HETATM   30  H   UNK     0      11.652   9.848   7.971  0.00  0.00     0.165 HD
HETATM   31  H   UNK     0      11.522  11.745   6.725  0.00  0.00     0.165 HD
HETATM   32  H   UNK     0      14.711  11.588   5.852  0.00  0.00     0.165 HD
ENDROOT
BRANCH   6  33
HETATM   33  C   UNK     0      12.628   5.472   6.847  0.00  0.00     0.051 C 
BRANCH  33  34
HETATM   34  C   UNK     0      13.521   4.493   7.572  0.00  0.00     0.114 C 
BRANCH  34  35
HETATM   35  C   UNK     0      14.077   3.556   6.553  0.00  0.00     0.139 C 
HETATM   36  O   UNK     0      13.467   2.483   6.274  0.00  0.00    -0.650 OA
BRANCH  35  37
HETATM   37  O   UNK     0      15.262   3.808   5.872  0.00  0.00    -0.776 OA
HETATM   38  H   UNK     0      15.833   4.612   6.073  0.00  0.00     0.167 HD
ENDBRANCH  35  37
ENDBRANCH  34  35
ENDBRANCH  33  34
ENDBRANCH   6  33
BRANCH  27  39
HETATM   39  C   UNK     0      12.031  12.734   2.097  0.00  0.00     0.051 C 
BRANCH  39  40
HETATM   40  C   UNK     0      12.646  13.788   1.291  0.00  0.00     0.114 C 
BRANCH  40  41
HETATM   41  C   UNK     0      12.290  15.181   1.442  0.00  0.00     0.139 C 
HETATM   42  O   UNK     0      11.566  15.606   2.352  0.00  0.00    -0.650 OA
BRANCH  41  43
HETATM   43  O   UNK     0      12.789  16.128   0.503  0.00  0.00    -0.776 OA
HETATM   44  H   UNK     0      12.519  17.086   0.690  0.00  0.00     0.167 HD
ENDBRANCH  41  43
ENDBRANCH  40  41
ENDBRANCH  39  40
ENDBRANCH  27  39
BRANCH  11  45
HETATM   45  C   UNK     0      12.935  11.465  12.241  0.00  0.00     0.051 C 
BRANCH  45  46
HETATM   46  C   UNK     0      13.899  12.588  12.114  0.00  0.00     0.114 C 
BRANCH  46  47
HETATM   47  C   UNK     0      13.400  13.699  12.974  0.00  0.00     0.139 C 
HETATM   48  O   UNK     0      14.222  14.490  13.456  0.00  0.00    -0.650 OA
BRANCH  47  49
HETATM   49  O   UNK     0      12.059  13.843  13.227  0.00  0.00    -0.776 OA
HETATM   50  H   UNK     0      11.702  14.067  14.164  0.00  0.00     0.167 HD
ENDBRANCH  47  49
ENDBRANCH  46  47
ENDBRANCH  45  46
ENDBRANCH  11  45
BRANCH  18  51
HETATM   51  C   UNK     0      13.372  16.088   7.027  0.00  0.00     0.051 C 
BRANCH  51  52
HETATM   52  C   UNK     0      12.236  17.101   7.050  0.00  0.00     0.114 C 
BRANCH  52  53
HETATM   53  C   UNK     0      11.403  17.020   5.834  0.00  0.00     0.139 C 
HETATM   54  O   UNK     0      10.249  16.568   5.901  0.00  0.00    -0.650 OA
BRANCH  53  55
HETATM   55  O   UNK     0      11.914  17.445   4.631  0.00  0.00    -0.776 OA
HETATM   56  H   UNK     0      12.599  16.974   4.089  0.00  0.00     0.167 HD
ENDBRANCH  53  55
ENDBRANCH  52  53
ENDBRANCH  51  52
ENDBRANCH  18  51
TORSDOF 16
ENDMDL
MODEL 15
REMARK VINA RESULT:      -8.9     28.248     30.792
REMARK  16 active torsions:
REMARK  status: ('A' for Active; 'I' for Inactive)
REMARK    1  A    between atoms: C_6  and  C_7 
REMARK    2  A    between atoms: C_7  and  C_8 
REMARK    3  A    between atoms: C_8  and  C_9 
REMARK    4  A    between atoms: C_9  and  O_11 
REMARK    5  A    between atoms: C_16  and  C_17 
REMARK    6  A    between atoms: C_17  and  C_18 
REMARK    7  A    between atoms: C_18  and  C_19 
REMARK    8  A    between atoms: C_19  and  O_21 
REMARK    9  A    between atoms: C_28  and  C_29 
REMARK   10  A    between atoms: C_29  and  C_30 
REMARK   11  A    between atoms: C_30  and  C_31 
REMARK   12  A    between atoms: C_31  and  O_33 
REMARK   13  A    between atoms: C_42  and  C_43 
REMARK   14  A    between atoms: C_43  and  C_44 
REMARK   15  A    between atoms: C_44  and  C_45 
REMARK   16  A    between atoms: C_45  and  O_47 
ROOT
HETATM    1  C   UNK     0      12.918  13.779   3.640  0.00  0.00     0.051 C 
HETATM    2  C   UNK     0      13.757  12.517   3.659  0.00  0.00    -0.031 A 
HETATM    3  C   UNK     0      14.471  11.951   4.704  0.00  0.00     0.021 A 
HETATM    4  N   UNK     0      15.099  10.838   4.256  0.00  0.00    -0.361 N 
HETATM    5  C   UNK     0      14.794  10.677   2.952  0.00  0.00     0.022 A 
HETATM    6  C   UNK     0      13.958  11.712   2.545  0.00  0.00    -0.027 A 
HETATM    7  C   UNK     0      15.153   9.562   2.021  0.00  0.00     0.115 C 
HETATM    8  C   UNK     0      15.050   8.151   2.575  0.00  0.00     0.021 A 
HETATM    9  N   UNK     0      14.155   7.658   3.445  0.00  0.00    -0.361 N 
HETATM   10  C   UNK     0      14.502   6.384   3.725  0.00  0.00     0.022 A 
HETATM   11  C   UNK     0      15.645   6.044   3.009  0.00  0.00    -0.027 A 
HETATM   12  C   UNK     0      15.996   7.153   2.282  0.00  0.00    -0.031 A 
HETATM   13  C   UNK     0      17.181   7.247   1.347  0.00  0.00     0.051 C 
HETATM   14  C   UNK     0      13.802   5.456   4.715  0.00  0.00     0.115 C 
HETATM   15  C   UNK     0      13.806   5.969   6.146  0.00  0.00     0.021 A 
HETATM   16  N   UNK     0      13.300   7.129   6.605  0.00  0.00    -0.361 N 
HETATM   17  C   UNK     0      13.566   7.239   7.908  0.00  0.00     0.022 A 
HETATM   18  C   UNK     0      14.271   6.091   8.321  0.00  0.00    -0.027 A 
HETATM   19  C   UNK     0      14.413   5.303   7.209  0.00  0.00    -0.031 A 
HETATM   20  C   UNK     0      15.088   3.944   7.219  0.00  0.00     0.051 C 
HETATM   21  C   UNK     0      13.281   8.374   8.866  0.00  0.00     0.115 C 
HETATM   22  C   UNK     0      13.337   9.780   8.317  0.00  0.00     0.022 A 
HETATM   23  N   UNK     0      14.213  10.298   7.447  0.00  0.00    -0.361 N 
HETATM   24  C   UNK     0      13.805  11.541   7.123  0.00  0.00     0.021 A 
HETATM   25  C   UNK     0      12.642  11.835   7.809  0.00  0.00    -0.031 A 
HETATM   26  C   UNK     0      11.831  13.115   7.807  0.00  0.00     0.051 C 
HETATM   27  C   UNK     0      12.323  10.724   8.580  0.00  0.00    -0.027 A 
HETATM   28  C   UNK     0      14.421  12.487   6.106  0.00  0.00     0.115 C 
HETATM   29  H   UNK     0      15.785  10.195   4.855  0.00  0.00     0.165 HD
HETATM   30  H   UNK     0      13.249   8.190   3.825  0.00  0.00     0.165 HD
HETATM   31  H   UNK     0      12.701   7.865   6.007  0.00  0.00     0.165 HD
HETATM   32  H   UNK     0      15.154   9.806   7.086  0.00  0.00     0.165 HD
ENDROOT
BRANCH   6  33
HETATM   33  C   UNK     0      13.346  11.991   1.196  0.00  0.00     0.051 C 
BRANCH  33  34
HETATM   34  C   UNK     0      14.204  12.952   0.408  0.00  0.00     0.114 C 
BRANCH  34  35
HETATM   35  C   UNK     0      14.498  12.314  -0.907  0.00  0.00     0.139 C 
HETATM   36  O   UNK     0      14.656  11.060  -0.985  0.00  0.00    -0.650 OA
BRANCH  35  37
HETATM   37  O   UNK     0      14.609  13.041  -2.085  0.00  0.00    -0.776 OA
HETATM   38  H   UNK     0      14.307  12.671  -2.972  0.00  0.00     0.167 HD
ENDBRANCH  35  37
ENDBRANCH  34  35
ENDBRANCH  33  34
ENDBRANCH   6  33
BRANCH  27  39
HETATM   39  C   UNK     0      11.166  10.691   9.516  0.00  0.00     0.051 C 
BRANCH  39  40
HETATM   40  C   UNK     0      11.427  10.831  10.948  0.00  0.00     0.114 C 
BRANCH  40  41
HETATM   41  C   UNK     0      11.859   9.719  11.764  0.00  0.00     0.139 C 
HETATM   42  O   UNK     0      12.995   9.628  12.251  0.00  0.00    -0.650 OA
BRANCH  41  43
HETATM   43  O   UNK     0      10.944   8.662  12.033  0.00  0.00    -0.776 OA
HETATM   44  H   UNK     0      10.529   8.692  12.957  0.00  0.00     0.167 HD
ENDBRANCH  41  43
ENDBRANCH  40  41
ENDBRANCH  39  40
ENDBRANCH  27  39
BRANCH  11  45
HETATM   45  C   UNK     0      16.392   4.737   2.991  0.00  0.00     0.051 C 
BRANCH  45  46
HETATM   46  C   UNK     0      16.593   4.173   1.632  0.00  0.00     0.114 C 
BRANCH  46  47
HETATM   47  C   UNK     0      15.242   3.941   1.046  0.00  0.00     0.139 C 
HETATM   48  O   UNK     0      14.468   3.169   1.629  0.00  0.00    -0.650 OA
BRANCH  47  49
HETATM   49  O   UNK     0      14.863   4.566  -0.115  0.00  0.00    -0.776 OA
HETATM   50  H   UNK     0      15.157   5.524  -0.339  0.00  0.00     0.167 HD
ENDBRANCH  47  49
ENDBRANCH  46  47
ENDBRANCH  45  46
ENDBRANCH  11  45
BRANCH  18  51
HETATM   51  C   UNK     0      14.763   5.754   9.705  0.00  0.00     0.051 C 
BRANCH  51  52
HETATM   52  C   UNK     0      13.641   4.980  10.379  0.00  0.00     0.114 C 
BRANCH  52  53
HETATM   53  C   UNK     0      12.794   5.855  11.214  0.00  0.00     0.139 C 
HETATM   54  O   UNK     0      11.568   5.898  11.024  0.00  0.00    -0.650 OA
BRANCH  53  55
HETATM   55  O   UNK     0      13.371   6.622  12.197  0.00  0.00    -0.776 OA
HETATM   56  H   UNK     0      13.489   6.361  13.148  0.00  0.00     0.167 HD
ENDBRANCH  53  55
ENDBRANCH  52  53
ENDBRANCH  51  52
ENDBRANCH  18  51
TORSDOF 16
ENDMDL
MODEL 16
REMARK VINA RESULT:      -8.9     28.253     31.470
REMARK  16 active torsions:
REMARK  status: ('A' for Active; 'I' for Inactive)
REMARK    1  A    between atoms: C_6  and  C_7 
REMARK    2  A    between atoms: C_7  and  C_8 
REMARK    3  A    between atoms: C_8  and  C_9 
REMARK    4  A    between atoms: C_9  and  O_11 
REMARK    5  A    between atoms: C_16  and  C_17 
REMARK    6  A    between atoms: C_17  and  C_18 
REMARK    7  A    between atoms: C_18  and  C_19 
REMARK    8  A    between atoms: C_19  and  O_21 
REMARK    9  A    between atoms: C_28  and  C_29 
REMARK   10  A    between atoms: C_29  and  C_30 
REMARK   11  A    between atoms: C_30  and  C_31 
REMARK   12  A    between atoms: C_31  and  O_33 
REMARK   13  A    between atoms: C_42  and  C_43 
REMARK   14  A    between atoms: C_43  and  C_44 
REMARK   15  A    between atoms: C_44  and  C_45 
REMARK   16  A    between atoms: C_45  and  O_47 
ROOT
HETATM    1  C   UNK     0      13.835   8.907  11.971  0.00  0.00     0.051 C 
HETATM    2  C   UNK     0      13.418   8.530  10.563  0.00  0.00    -0.031 A 
HETATM    3  C   UNK     0      12.503   9.144   9.723  0.00  0.00     0.021 A 
HETATM    4  N   UNK     0      12.427   8.444   8.567  0.00  0.00    -0.361 N 
HETATM    5  C   UNK     0      13.280   7.402   8.648  0.00  0.00     0.022 A 
HETATM    6  C   UNK     0      13.915   7.424   9.885  0.00  0.00    -0.027 A 
HETATM    7  C   UNK     0      13.642   6.385   7.611  0.00  0.00     0.115 C 
HETATM    8  C   UNK     0      13.859   6.899   6.199  0.00  0.00     0.021 A 
HETATM    9  N   UNK     0      14.400   8.062   5.806  0.00  0.00    -0.361 N 
HETATM   10  C   UNK     0      14.306   8.136   4.462  0.00  0.00     0.022 A 
HETATM   11  C   UNK     0      13.696   6.984   3.974  0.00  0.00    -0.027 A 
HETATM   12  C   UNK     0      13.412   6.200   5.063  0.00  0.00    -0.031 A 
HETATM   13  C   UNK     0      12.748   4.842   5.014  0.00  0.00     0.051 C 
HETATM   14  C   UNK     0      14.737   9.313   3.591  0.00  0.00     0.115 C 
HETATM   15  C   UNK     0      14.003  10.608   3.899  0.00  0.00     0.021 A 
HETATM   16  N   UNK     0      13.956  11.265   5.073  0.00  0.00    -0.361 N 
HETATM   17  C   UNK     0      13.149  12.322   4.952  0.00  0.00     0.022 A 
HETATM   18  C   UNK     0      12.655  12.360   3.633  0.00  0.00    -0.027 A 
HETATM   19  C   UNK     0      13.198  11.282   2.984  0.00  0.00    -0.031 A 
HETATM   20  C   UNK     0      12.953  10.967   1.519  0.00  0.00     0.051 C 
HETATM   21  C   UNK     0      12.707  13.331   5.987  0.00  0.00     0.115 C 
HETATM   22  C   UNK     0      12.530  12.843   7.406  0.00  0.00     0.022 A 
HETATM   23  N   UNK     0      11.999  11.688   7.826  0.00  0.00    -0.361 N 
HETATM   24  C   UNK     0      12.174  11.602   9.160  0.00  0.00     0.021 A 
HETATM   25  C   UNK     0      12.824  12.734   9.611  0.00  0.00    -0.031 A 
HETATM   26  C   UNK     0      13.205  13.114  11.027  0.00  0.00     0.051 C 
HETATM   27  C   UNK     0      13.063  13.544   8.507  0.00  0.00    -0.027 A 
HETATM   28  C   UNK     0      11.822  10.438  10.070  0.00  0.00     0.115 C 
HETATM   29  H   UNK     0      11.741   8.668   7.716  0.00  0.00     0.165 HD
HETATM   30  H   UNK     0      14.895   8.812   6.471  0.00  0.00     0.165 HD
HETATM   31  H   UNK     0      14.541  11.006   5.994  0.00  0.00     0.165 HD
HETATM   32  H   UNK     0      11.456  10.941   7.190  0.00  0.00     0.165 HD
ENDROOT
BRANCH   6  33
HETATM   33  C   UNK     0      14.943   6.486  10.466  0.00  0.00     0.051 C 
BRANCH  33  34
HETATM   34  C   UNK     0      14.303   5.181  10.877  0.00  0.00     0.114 C 
BRANCH  34  35
HETATM   35  C   UNK     0      15.197   4.080  10.413  0.00  0.00     0.139 C 
HETATM   36  O   UNK     0      15.543   3.162  11.211  0.00  0.00    -0.650 OA
BRANCH  35  37
HETATM   37  O   UNK     0      15.681   4.006   9.113  0.00  0.00    -0.776 OA
HETATM   38  H   UNK     0      15.574   4.764   8.458  0.00  0.00     0.167 HD
ENDBRANCH  35  37
ENDBRANCH  34  35
ENDBRANCH  33  34
ENDBRANCH   6  33
BRANCH  27  39
HETATM   39  C   UNK     0      13.687  14.891   8.609  0.00  0.00     0.051 C 
BRANCH  39  40
HETATM   40  C   UNK     0      12.825  16.066   8.488  0.00  0.00     0.114 C 
BRANCH  40  41
HETATM   41  C   UNK     0      12.708  16.812   7.255  0.00  0.00     0.139 C 
HETATM   42  O   UNK     0      13.662  17.030   6.495  0.00  0.00    -0.650 OA
BRANCH  41  43
HETATM   43  O   UNK     0      11.437  17.332   6.880  0.00  0.00    -0.776 OA
HETATM   44  H   UNK     0      11.478  18.166   6.307  0.00  0.00     0.167 HD
ENDBRANCH  41  43
ENDBRANCH  40  41
ENDBRANCH  39  40
ENDBRANCH  27  39
BRANCH  11  45
HETATM   45  C   UNK     0      13.386   6.613   2.548  0.00  0.00     0.051 C 
BRANCH  45  46
HETATM   46  C   UNK     0      14.568   6.163   1.769  0.00  0.00     0.114 C 
BRANCH  46  47
HETATM   47  C   UNK     0      14.945   7.280   0.855  0.00  0.00     0.139 C 
HETATM   48  O   UNK     0      14.053   7.833   0.196  0.00  0.00    -0.650 OA
BRANCH  47  49
HETATM   49  O   UNK     0      16.250   7.686   0.744  0.00  0.00    -0.776 OA
HETATM   50  H   UNK     0      16.762   7.641  -0.145  0.00  0.00     0.167 HD
ENDBRANCH  47  49
ENDBRANCH  46  47
ENDBRANCH  45  46
ENDBRANCH  11  45
BRANCH  18  51
HETATM   51  C   UNK     0      11.732  13.381   3.019  0.00  0.00     0.051 C 
BRANCH  51  52
HETATM   52  C   UNK     0      12.611  14.547   2.592  0.00  0.00     0.114 C 
BRANCH  52  53
HETATM   53  C   UNK     0      11.949  15.392   1.579  0.00  0.00     0.139 C 
HETATM   54  O   UNK     0      10.710  15.400   1.490  0.00  0.00    -0.650 OA
BRANCH  53  55
HETATM   55  O   UNK     0      12.709  16.166   0.737  0.00  0.00    -0.776 OA
HETATM   56  H   UNK     0      13.406  15.836   0.111  0.00  0.00     0.167 HD
ENDBRANCH  53  55
ENDBRANCH  52  53
ENDBRANCH  51  52
ENDBRANCH  18  51
TORSDOF 16
ENDMDL
MODEL 17
REMARK VINA RESULT:      -8.8      2.581      8.499
REMARK  16 active torsions:
REMARK  status: ('A' for Active; 'I' for Inactive)
REMARK    1  A    between atoms: C_6  and  C_7 
REMARK    2  A    between atoms: C_7  and  C_8 
REMARK    3  A    between atoms: C_8  and  C_9 
REMARK    4  A    between atoms: C_9  and  O_11 
REMARK    5  A    between atoms: C_16  and  C_17 
REMARK    6  A    between atoms: C_17  and  C_18 
REMARK    7  A    between atoms: C_18  and  C_19 
REMARK    8  A    between atoms: C_19  and  O_21 
REMARK    9  A    between atoms: C_28  and  C_29 
REMARK   10  A    between atoms: C_29  and  C_30 
REMARK   11  A    between atoms: C_30  and  C_31 
REMARK   12  A    between atoms: C_31  and  O_33 
REMARK   13  A    between atoms: C_42  and  C_43 
REMARK   14  A    between atoms: C_43  and  C_44 
REMARK   15  A    between atoms: C_44  and  C_45 
REMARK   16  A    between atoms: C_45  and  O_47 
ROOT
HETATM    1  C   UNK     0      -3.919  -2.761  22.266  0.00  0.00     0.051 C 
HETATM    2  C   UNK     0      -4.235  -4.242  22.270  0.00  0.00    -0.031 A 
HETATM    3  C   UNK     0      -5.464  -4.879  22.206  0.00  0.00     0.021 A 
HETATM    4  N   UNK     0      -5.271  -6.218  22.270  0.00  0.00    -0.361 N 
HETATM    5  C   UNK     0      -3.945  -6.448  22.364  0.00  0.00     0.022 A 
HETATM    6  C   UNK     0      -3.268  -5.234  22.369  0.00  0.00    -0.027 A 
HETATM    7  C   UNK     0      -3.203  -7.748  22.368  0.00  0.00     0.115 C 
HETATM    8  C   UNK     0      -3.666  -8.801  21.377  0.00  0.00     0.021 A 
HETATM    9  N   UNK     0      -4.138  -8.628  20.133  0.00  0.00    -0.361 N 
HETATM   10  C   UNK     0      -4.515  -9.834  19.656  0.00  0.00     0.022 A 
HETATM   11  C   UNK     0      -4.270 -10.811  20.616  0.00  0.00    -0.027 A 
HETATM   12  C   UNK     0      -3.735 -10.168  21.703  0.00  0.00    -0.031 A 
HETATM   13  C   UNK     0      -3.306 -10.835  22.990  0.00  0.00     0.051 C 
HETATM   14  C   UNK     0      -5.167 -10.105  18.303  0.00  0.00     0.115 C 
HETATM   15  C   UNK     0      -6.503  -9.404  18.112  0.00  0.00     0.021 A 
HETATM   16  N   UNK     0      -6.752  -8.082  18.167  0.00  0.00    -0.361 N 
HETATM   17  C   UNK     0      -8.062  -7.876  18.017  0.00  0.00     0.022 A 
HETATM   18  C   UNK     0      -8.696  -9.123  17.847  0.00  0.00    -0.027 A 
HETATM   19  C   UNK     0      -7.708 -10.072  17.907  0.00  0.00    -0.031 A 
HETATM   20  C   UNK     0      -7.955 -11.559  17.733  0.00  0.00     0.051 C 
HETATM   21  C   UNK     0      -8.857  -6.591  18.072  0.00  0.00     0.115 C 
HETATM   22  C   UNK     0      -8.381  -5.517  19.022  0.00  0.00     0.022 A 
HETATM   23  N   UNK     0      -7.902  -5.661  20.264  0.00  0.00    -0.361 N 
HETATM   24  C   UNK     0      -7.462  -4.460  20.690  0.00  0.00     0.021 A 
HETATM   25  C   UNK     0      -7.671  -3.518  19.701  0.00  0.00    -0.031 A 
HETATM   26  C   UNK     0      -7.381  -2.031  19.723  0.00  0.00     0.051 C 
HETATM   27  C   UNK     0      -8.259  -4.171  18.623  0.00  0.00    -0.027 A 
HETATM   28  C   UNK     0      -6.754  -4.138  21.995  0.00  0.00     0.115 C 
HETATM   29  H   UNK     0      -6.076  -6.990  22.288  0.00  0.00     0.165 HD
HETATM   30  H   UNK     0      -4.161  -7.664  19.569  0.00  0.00     0.165 HD
HETATM   31  H   UNK     0      -5.982  -7.273  18.265  0.00  0.00     0.165 HD
HETATM   32  H   UNK     0      -7.911  -6.604  20.870  0.00  0.00     0.165 HD
ENDROOT
BRANCH   6  33
HETATM   33  C   UNK     0      -1.790  -4.947  22.462  0.00  0.00     0.051 C 
BRANCH  33  34
HETATM   34  C   UNK     0      -1.273  -5.253  23.848  0.00  0.00     0.114 C 
BRANCH  34  35
HETATM   35  C   UNK     0      -1.126  -3.955  24.566  0.00  0.00     0.139 C 
HETATM   36  O   UNK     0      -0.269  -3.108  24.183  0.00  0.00    -0.650 OA
BRANCH  35  37
HETATM   37  O   UNK     0      -1.906  -3.615  25.665  0.00  0.00    -0.776 OA
HETATM   38  H   UNK     0      -1.691  -2.823  26.249  0.00  0.00     0.167 HD
ENDBRANCH  35  37
ENDBRANCH  34  35
ENDBRANCH  33  34
ENDBRANCH   6  33
BRANCH  27  39
HETATM   39  C   UNK     0      -8.699  -3.464  17.390  0.00  0.00     0.051 C 
BRANCH  39  40
HETATM   40  C   UNK     0     -10.095  -3.036  17.296  0.00  0.00     0.114 C 
BRANCH  40  41
HETATM   41  C   UNK     0     -11.185  -3.979  17.191  0.00  0.00     0.139 C 
HETATM   42  O   UNK     0     -11.774  -4.455  18.172  0.00  0.00    -0.650 OA
BRANCH  41  43
HETATM   43  O   UNK     0     -11.618  -4.394  15.900  0.00  0.00    -0.776 OA
HETATM   44  H   UNK     0     -10.924  -4.908  15.371  0.00  0.00     0.167 HD
ENDBRANCH  41  43
ENDBRANCH  40  41
ENDBRANCH  39  40
ENDBRANCH  27  39
BRANCH  11  45
HETATM   45  C   UNK     0      -4.517 -12.294  20.535  0.00  0.00     0.051 C 
BRANCH  45  46
HETATM   46  C   UNK     0      -5.946 -12.661  20.362  0.00  0.00     0.114 C 
BRANCH  46  47
HETATM   47  C   UNK     0      -6.568 -12.668  21.717  0.00  0.00     0.139 C 
HETATM   48  O   UNK     0      -5.919 -13.135  22.664  0.00  0.00    -0.650 OA
BRANCH  47  49
HETATM   49  O   UNK     0      -7.831 -12.170  21.913  0.00  0.00    -0.776 OA
HETATM   50  H   UNK     0      -8.476 -12.576  22.601  0.00  0.00     0.167 HD
ENDBRANCH  47  49
ENDBRANCH  46  47
ENDBRANCH  45  46
ENDBRANCH  11  45
BRANCH  18  51
HETATM   51  C   UNK     0     -10.160  -9.395  17.618  0.00  0.00     0.051 C 
BRANCH  51  52
HETATM   52  C   UNK     0     -10.462  -8.935  16.199  0.00  0.00     0.114 C 
BRANCH  52  53
HETATM   53  C   UNK     0     -11.810  -8.345  16.088  0.00  0.00     0.139 C 
HETATM   54  O   UNK     0     -12.628  -8.812  15.278  0.00  0.00    -0.650 OA
BRANCH  53  55
HETATM   55  O   UNK     0     -12.152  -7.277  16.880  0.00  0.00    -0.776 OA
HETATM   56  H   UNK     0     -11.678  -6.406  16.923  0.00  0.00     0.167 HD
ENDBRANCH  53  55
ENDBRANCH  52  53
ENDBRANCH  51  52
ENDBRANCH  18  51
TORSDOF 16
ENDMDL
MODEL 18
REMARK VINA RESULT:      -8.5      5.012      8.771
REMARK  16 active torsions:
REMARK  status: ('A' for Active; 'I' for Inactive)
REMARK    1  A    between atoms: C_6  and  C_7 
REMARK    2  A    between atoms: C_7  and  C_8 
REMARK    3  A    between atoms: C_8  and  C_9 
REMARK    4  A    between atoms: C_9  and  O_11 
REMARK    5  A    between atoms: C_16  and  C_17 
REMARK    6  A    between atoms: C_17  and  C_18 
REMARK    7  A    between atoms: C_18  and  C_19 
REMARK    8  A    between atoms: C_19  and  O_21 
REMARK    9  A    between atoms: C_28  and  C_29 
REMARK   10  A    between atoms: C_29  and  C_30 
REMARK   11  A    between atoms: C_30  and  C_31 
REMARK   12  A    between atoms: C_31  and  O_33 
REMARK   13  A    between atoms: C_42  and  C_43 
REMARK   14  A    between atoms: C_43  and  C_44 
REMARK   15  A    between atoms: C_44  and  C_45 
REMARK   16  A    between atoms: C_45  and  O_47 
ROOT
HETATM    1  C   UNK     0      -8.595  -8.603  21.035  0.00  0.00     0.051 C 
HETATM    2  C   UNK     0      -7.168  -9.102  20.938  0.00  0.00    -0.031 A 
HETATM    3  C   UNK     0      -6.052  -8.477  20.403  0.00  0.00     0.021 A 
HETATM    4  N   UNK     0      -4.989  -9.310  20.504  0.00  0.00    -0.361 N 
HETATM    5  C   UNK     0      -5.402 -10.449  21.099  0.00  0.00     0.022 A 
HETATM    6  C   UNK     0      -6.760 -10.353  21.381  0.00  0.00    -0.027 A 
HETATM    7  C   UNK     0      -4.605 -11.643  21.525  0.00  0.00     0.115 C 
HETATM    8  C   UNK     0      -3.270 -11.368  22.194  0.00  0.00     0.021 A 
HETATM    9  N   UNK     0      -2.941 -10.366  23.024  0.00  0.00    -0.361 N 
HETATM   10  C   UNK     0      -1.624 -10.465  23.299  0.00  0.00     0.022 A 
HETATM   11  C   UNK     0      -1.091 -11.567  22.636  0.00  0.00    -0.027 A 
HETATM   12  C   UNK     0      -2.123 -12.140  21.938  0.00  0.00    -0.031 A 
HETATM   13  C   UNK     0      -2.013 -13.374  21.070  0.00  0.00     0.051 C 
HETATM   14  C   UNK     0      -0.806  -9.500  24.152  0.00  0.00     0.115 C 
HETATM   15  C   UNK     0      -0.777  -8.078  23.616  0.00  0.00     0.021 A 
HETATM   16  N   UNK     0      -1.825  -7.265  23.386  0.00  0.00    -0.361 N 
HETATM   17  C   UNK     0      -1.387  -6.124  22.849  0.00  0.00     0.022 A 
HETATM   18  C   UNK     0       0.016  -6.193  22.732  0.00  0.00    -0.027 A 
HETATM   19  C   UNK     0       0.385  -7.421  23.217  0.00  0.00    -0.031 A 
HETATM   20  C   UNK     0       1.825  -7.894  23.308  0.00  0.00     0.051 C 
HETATM   21  C   UNK     0      -2.160  -4.926  22.346  0.00  0.00     0.115 C 
HETATM   22  C   UNK     0      -3.510  -5.181  21.718  0.00  0.00     0.022 A 
HETATM   23  N   UNK     0      -3.867  -6.173  20.891  0.00  0.00    -0.361 N 
HETATM   24  C   UNK     0      -5.198  -6.100  20.692  0.00  0.00     0.021 A 
HETATM   25  C   UNK     0      -5.710  -5.029  21.400  0.00  0.00    -0.031 A 
HETATM   26  C   UNK     0      -7.135  -4.520  21.461  0.00  0.00     0.051 C 
HETATM   27  C   UNK     0      -4.648  -4.425  22.064  0.00  0.00    -0.027 A 
HETATM   28  C   UNK     0      -6.075  -7.059  19.906  0.00  0.00     0.115 C 
HETATM   29  H   UNK     0      -3.964  -9.104  20.118  0.00  0.00     0.165 HD
HETATM   30  H   UNK     0      -3.648  -9.616  23.457  0.00  0.00     0.165 HD
HETATM   31  H   UNK     0      -2.893  -7.481  23.652  0.00  0.00     0.165 HD
HETATM   32  H   UNK     0      -3.174  -6.908  20.405  0.00  0.00     0.165 HD
ENDROOT
BRANCH   6  33
HETATM   33  C   UNK     0      -7.689 -11.349  22.030  0.00  0.00     0.051 C 
BRANCH  33  34
HETATM   34  C   UNK     0      -8.582 -11.997  20.999  0.00  0.00     0.114 C 
BRANCH  34  35
HETATM   35  C   UNK     0      -7.758 -12.995  20.258  0.00  0.00     0.139 C 
HETATM   36  O   UNK     0      -7.213 -13.955  20.875  0.00  0.00    -0.650 OA
BRANCH  35  37
HETATM   37  O   UNK     0      -7.554 -12.925  18.885  0.00  0.00    -0.776 OA
HETATM   38  H   UNK     0      -6.980 -13.593  18.396  0.00  0.00     0.167 HD
ENDBRANCH  35  37
ENDBRANCH  34  35
ENDBRANCH  33  34
ENDBRANCH   6  33
BRANCH  27  39
HETATM   39  C   UNK     0      -4.799  -3.188  22.878  0.00  0.00     0.051 C 
BRANCH  39  40
HETATM   40  C   UNK     0      -5.000  -3.326  24.320  0.00  0.00     0.114 C 
BRANCH  40  41
HETATM   41  C   UNK     0      -6.276  -3.702  24.887  0.00  0.00     0.139 C 
HETATM   42  O   UNK     0      -6.429  -4.674  25.640  0.00  0.00    -0.650 OA
BRANCH  41  43
HETATM   43  O   UNK     0      -7.427  -2.926  24.574  0.00  0.00    -0.776 OA
HETATM   44  H   UNK     0      -7.386  -2.458  23.677  0.00  0.00     0.167 HD
ENDBRANCH  41  43
ENDBRANCH  40  41
ENDBRANCH  39  40
ENDBRANCH  27  39
BRANCH  11  45
HETATM   45  C   UNK     0       0.324 -12.079  22.646  0.00  0.00     0.051 C 
BRANCH  45  46
HETATM   46  C   UNK     0       1.292 -11.200  21.941  0.00  0.00     0.114 C 
BRANCH  46  47
HETATM   47  C   UNK     0       2.375 -12.074  21.406  0.00  0.00     0.139 C 
HETATM   48  O   UNK     0       3.419 -11.544  21.002  0.00  0.00    -0.650 OA
BRANCH  47  49
HETATM   49  O   UNK     0       2.220 -13.437  21.361  0.00  0.00    -0.776 OA
HETATM   50  H   UNK     0       1.322 -13.890  21.566  0.00  0.00     0.167 HD
ENDBRANCH  47  49
ENDBRANCH  46  47
ENDBRANCH  45  46
ENDBRANCH  11  45
BRANCH  18  51
HETATM   51  C   UNK     0       0.955  -5.138  22.206  0.00  0.00     0.051 C 
BRANCH  51  52
HETATM   52  C   UNK     0       0.936  -5.268  20.691  0.00  0.00     0.114 C 
BRANCH  52  53
HETATM   53  C   UNK     0       2.289  -5.160  20.113  0.00  0.00     0.139 C 
HETATM   54  O   UNK     0       3.066  -4.277  20.511  0.00  0.00    -0.650 OA
BRANCH  53  55
HETATM   55  O   UNK     0       2.682  -6.038  19.132  0.00  0.00    -0.776 OA
HETATM   56  H   UNK     0       2.139  -6.784  18.765  0.00  0.00     0.167 HD
ENDBRANCH  53  55
ENDBRANCH  52  53
ENDBRANCH  51  52
ENDBRANCH  18  51
TORSDOF 16
ENDMDL
MODEL 19
REMARK VINA RESULT:      -8.5     28.116     31.309
REMARK  16 active torsions:
REMARK  status: ('A' for Active; 'I' for Inactive)
REMARK    1  A    between atoms: C_6  and  C_7 
REMARK    2  A    between atoms: C_7  and  C_8 
REMARK    3  A    between atoms: C_8  and  C_9 
REMARK    4  A    between atoms: C_9  and  O_11 
REMARK    5  A    between atoms: C_16  and  C_17 
REMARK    6  A    between atoms: C_17  and  C_18 
REMARK    7  A    between atoms: C_18  and  C_19 
REMARK    8  A    between atoms: C_19  and  O_21 
REMARK    9  A    between atoms: C_28  and  C_29 
REMARK   10  A    between atoms: C_29  and  C_30 
REMARK   11  A    between atoms: C_30  and  C_31 
REMARK   12  A    between atoms: C_31  and  O_33 
REMARK   13  A    between atoms: C_42  and  C_43 
REMARK   14  A    between atoms: C_43  and  C_44 
REMARK   15  A    between atoms: C_44  and  C_45 
REMARK   16  A    between atoms: C_45  and  O_47 
ROOT
HETATM    1  C   UNK     0      15.847   4.390   5.162  0.00  0.00     0.051 C 
HETATM    2  C   UNK     0      15.001   5.595   4.806  0.00  0.00    -0.031 A 
HETATM    3  C   UNK     0      13.876   6.099   5.440  0.00  0.00     0.021 A 
HETATM    4  N   UNK     0      13.428   7.176   4.754  0.00  0.00    -0.361 N 
HETATM    5  C   UNK     0      14.247   7.376   3.701  0.00  0.00     0.022 A 
HETATM    6  C   UNK     0      15.241   6.403   3.702  0.00  0.00    -0.027 A 
HETATM    7  C   UNK     0      14.248   8.481   2.691  0.00  0.00     0.115 C 
HETATM    8  C   UNK     0      14.015   9.886   3.218  0.00  0.00     0.021 A 
HETATM    9  N   UNK     0      14.421  10.422   4.379  0.00  0.00    -0.361 N 
HETATM   10  C   UNK     0      13.908  11.667   4.469  0.00  0.00     0.022 A 
HETATM   11  C   UNK     0      13.158  11.944   3.329  0.00  0.00    -0.027 A 
HETATM   12  C   UNK     0      13.221  10.827   2.537  0.00  0.00    -0.031 A 
HETATM   13  C   UNK     0      12.555  10.672   1.188  0.00  0.00     0.051 C 
HETATM   14  C   UNK     0      14.058  12.622   5.650  0.00  0.00     0.115 C 
HETATM   15  C   UNK     0      13.480  12.088   6.950  0.00  0.00     0.021 A 
HETATM   16  N   UNK     0      13.816  10.955   7.595  0.00  0.00    -0.361 N 
HETATM   17  C   UNK     0      13.028  10.808   8.663  0.00  0.00     0.022 A 
HETATM   18  C   UNK     0      12.143  11.903   8.722  0.00  0.00    -0.027 A 
HETATM   19  C   UNK     0      12.437  12.697   7.645  0.00  0.00    -0.031 A 
HETATM   20  C   UNK     0      11.736  14.011   7.349  0.00  0.00     0.051 C 
HETATM   21  C   UNK     0      12.951   9.679   9.666  0.00  0.00     0.115 C 
HETATM   22  C   UNK     0      13.224   8.281   9.164  0.00  0.00     0.022 A 
HETATM   23  N   UNK     0      12.836   7.722   8.011  0.00  0.00    -0.361 N 
HETATM   24  C   UNK     0      13.422   6.512   7.907  0.00  0.00     0.021 A 
HETATM   25  C   UNK     0      14.199   6.282   9.027  0.00  0.00    -0.031 A 
HETATM   26  C   UNK     0      15.014   5.057   9.386  0.00  0.00     0.051 C 
HETATM   27  C   UNK     0      14.088   7.400   9.846  0.00  0.00    -0.027 A 
HETATM   28  C   UNK     0      13.359   5.545   6.738  0.00  0.00     0.115 C 
HETATM   29  H   UNK     0      12.512   7.765   4.995  0.00  0.00     0.165 HD
HETATM   30  H   UNK     0      15.112   9.942   5.115  0.00  0.00     0.165 HD
HETATM   31  H   UNK     0      14.658  10.268   7.319  0.00  0.00     0.165 HD
HETATM   32  H   UNK     0      12.109   8.159   7.278  0.00  0.00     0.165 HD
ENDROOT
BRANCH   6  33
HETATM   33  C   UNK     0      16.385   6.184   2.745  0.00  0.00     0.051 C 
BRANCH  33  34
HETATM   34  C   UNK     0      15.871   5.877   1.358  0.00  0.00     0.114 C 
BRANCH  34  35
HETATM   35  C   UNK     0      16.047   4.413   1.131  0.00  0.00     0.139 C 
HETATM   36  O   UNK     0      15.243   3.587   1.652  0.00  0.00    -0.650 OA
BRANCH  35  37
HETATM   37  O   UNK     0      17.075   3.894   0.353  0.00  0.00    -0.776 OA
HETATM   38  H   UNK     0      18.045   4.023   0.594  0.00  0.00     0.167 HD
ENDBRANCH  35  37
ENDBRANCH  34  35
ENDBRANCH  33  34
ENDBRANCH   6  33
BRANCH  27  39
HETATM   39  C   UNK     0      14.733   7.491  11.184  0.00  0.00     0.051 C 
BRANCH  39  40
HETATM   40  C   UNK     0      13.873   7.583  12.364  0.00  0.00     0.114 C 
BRANCH  40  41
HETATM   41  C   UNK     0      14.015   8.639  13.340  0.00  0.00     0.139 C 
HETATM   42  O   UNK     0      14.856   8.622  14.249  0.00  0.00    -0.650 OA
BRANCH  41  43
HETATM   43  O   UNK     0      13.149   9.767  13.269  0.00  0.00    -0.776 OA
HETATM   44  H   UNK     0      12.520   9.863  14.058  0.00  0.00     0.167 HD
ENDBRANCH  41  43
ENDBRANCH  40  41
ENDBRANCH  39  40
ENDBRANCH  27  39
BRANCH  11  45
HETATM   45  C   UNK     0      12.407  13.201   2.979  0.00  0.00     0.051 C 
BRANCH  45  46
HETATM   46  C   UNK     0      13.218  14.207   2.245  0.00  0.00     0.114 C 
BRANCH  46  47
HETATM   47  C   UNK     0      12.277  15.019   1.423  0.00  0.00     0.139 C 
HETATM   48  O   UNK     0      11.083  14.690   1.391  0.00  0.00    -0.650 OA
BRANCH  47  49
HETATM   49  O   UNK     0      12.721  16.108   0.716  0.00  0.00    -0.776 OA
HETATM   50  H   UNK     0      13.564  16.627   0.987  0.00  0.00     0.167 HD
ENDBRANCH  47  49
ENDBRANCH  46  47
ENDBRANCH  45  46
ENDBRANCH  11  45
BRANCH  18  51
HETATM   51  C   UNK     0      11.088  12.186   9.760  0.00  0.00     0.051 C 
BRANCH  51  52
HETATM   52  C   UNK     0      11.668  13.255  10.675  0.00  0.00     0.114 C 
BRANCH  52  53
HETATM   53  C   UNK     0      12.326  12.668  11.859  0.00  0.00     0.139 C 
HETATM   54  O   UNK     0      13.540  12.411  11.831  0.00  0.00    -0.650 OA
BRANCH  53  55
HETATM   55  O   UNK     0      11.586  12.405  12.986  0.00  0.00    -0.776 OA
HETATM   56  H   UNK     0      11.646  11.587  13.546  0.00  0.00     0.167 HD
ENDBRANCH  53  55
ENDBRANCH  52  53
ENDBRANCH  51  52
ENDBRANCH  18  51
TORSDOF 16
ENDMDL
MODEL 20
REMARK VINA RESULT:      -8.5     26.946     30.467
REMARK  16 active torsions:
REMARK  status: ('A' for Active; 'I' for Inactive)
REMARK    1  A    between atoms: C_6  and  C_7 
REMARK    2  A    between atoms: C_7  and  C_8 
REMARK    3  A    between atoms: C_8  and  C_9 
REMARK    4  A    between atoms: C_9  and  O_11 
REMARK    5  A    between atoms: C_16  and  C_17 
REMARK    6  A    between atoms: C_17  and  C_18 
REMARK    7  A    between atoms: C_18  and  C_19 
REMARK    8  A    between atoms: C_19  and  O_21 
REMARK    9  A    between atoms: C_28  and  C_29 
REMARK   10  A    between atoms: C_29  and  C_30 
REMARK   11  A    between atoms: C_30  and  C_31 
REMARK   12  A    between atoms: C_31  and  O_33 
REMARK   13  A    between atoms: C_42  and  C_43 
REMARK   14  A    between atoms: C_43  and  C_44 
REMARK   15  A    between atoms: C_44  and  C_45 
REMARK   16  A    between atoms: C_45  and  O_47 
ROOT
HETATM    1  C   UNK     0      12.032   4.612  10.551  0.00  0.00     0.051 C 
HETATM    2  C   UNK     0      12.098   5.386   9.250  0.00  0.00    -0.031 A 
HETATM    3  C   UNK     0      11.377   6.501   8.852  0.00  0.00     0.021 A 
HETATM    4  N   UNK     0      11.745   6.838   7.593  0.00  0.00    -0.361 N 
HETATM    5  C   UNK     0      12.690   5.967   7.183  0.00  0.00     0.022 A 
HETATM    6  C   UNK     0      12.933   5.044   8.195  0.00  0.00    -0.027 A 
HETATM    7  C   UNK     0      13.486   5.953   5.916  0.00  0.00     0.115 C 
HETATM    8  C   UNK     0      14.016   7.291   5.429  0.00  0.00     0.021 A 
HETATM    9  N   UNK     0      14.459   8.329   6.155  0.00  0.00    -0.361 N 
HETATM   10  C   UNK     0      14.743   9.341   5.309  0.00  0.00     0.022 A 
HETATM   11  C   UNK     0      14.485   8.941   4.001  0.00  0.00    -0.027 A 
HETATM   12  C   UNK     0      14.026   7.650   4.070  0.00  0.00    -0.031 A 
HETATM   13  C   UNK     0      13.622   6.802   2.885  0.00  0.00     0.051 C 
HETATM   14  C   UNK     0      15.217  10.738   5.701  0.00  0.00     0.115 C 
HETATM   15  C   UNK     0      14.235  11.498   6.577  0.00  0.00     0.021 A 
HETATM   16  N   UNK     0      13.752  11.132   7.779  0.00  0.00    -0.361 N 
HETATM   17  C   UNK     0      12.861  12.037   8.188  0.00  0.00     0.022 A 
HETATM   18  C   UNK     0      12.764  13.047   7.210  0.00  0.00    -0.027 A 
HETATM   19  C   UNK     0      13.631  12.698   6.207  0.00  0.00    -0.031 A 
HETATM   20  C   UNK     0      13.866  13.538   4.965  0.00  0.00     0.051 C 
HETATM   21  C   UNK     0      11.990  12.054   9.424  0.00  0.00     0.115 C 
HETATM   22  C   UNK     0      11.493  10.726   9.945  0.00  0.00     0.022 A 
HETATM   23  N   UNK     0      11.049   9.674   9.246  0.00  0.00    -0.361 N 
HETATM   24  C   UNK     0      10.846   8.651  10.101  0.00  0.00     0.021 A 
HETATM   25  C   UNK     0      11.157   9.059  11.384  0.00  0.00    -0.031 A 
HETATM   26  C   UNK     0      11.053   8.285  12.682  0.00  0.00     0.051 C 
HETATM   27  C   UNK     0      11.573  10.383  11.310  0.00  0.00    -0.027 A 
HETATM   28  C   UNK     0      10.434   7.228   9.768  0.00  0.00     0.115 C 
HETATM   29  H   UNK     0      11.305   7.664   6.988  0.00  0.00     0.165 HD
HETATM   30  H   UNK     0      14.621   8.333   7.261  0.00  0.00     0.165 HD
HETATM   31  H   UNK     0      14.082  10.241   8.374  0.00  0.00     0.165 HD
HETATM   32  H   UNK     0      10.833   9.656   8.146  0.00  0.00     0.165 HD
ENDROOT
BRANCH   6  33
HETATM   33  C   UNK     0      13.884   3.874   8.233  0.00  0.00     0.051 C 
BRANCH  33  34
HETATM   34  C   UNK     0      15.302   4.345   8.453  0.00  0.00     0.114 C 
BRANCH  34  35
HETATM   35  C   UNK     0      15.658   4.043   9.869  0.00  0.00     0.139 C 
HETATM   36  O   UNK     0      15.543   4.936  10.759  0.00  0.00    -0.650 OA
BRANCH  35  37
HETATM   37  O   UNK     0      16.119   2.798  10.277  0.00  0.00    -0.776 OA
HETATM   38  H   UNK     0      16.151   2.009   9.652  0.00  0.00     0.167 HD
ENDBRANCH  35  37
ENDBRANCH  34  35
ENDBRANCH  33  34
ENDBRANCH   6  33
BRANCH  27  39
HETATM   39  C   UNK     0      11.925  11.191  12.509  0.00  0.00     0.051 C 
BRANCH  39  40
HETATM   40  C   UNK     0      13.340  11.394  12.818  0.00  0.00     0.114 C 
BRANCH  40  41
HETATM   41  C   UNK     0      14.026  12.630  12.513  0.00  0.00     0.139 C 
HETATM   42  O   UNK     0      13.446  13.713  12.359  0.00  0.00    -0.650 OA
BRANCH  41  43
HETATM   43  O   UNK     0      15.443  12.619  12.380  0.00  0.00    -0.776 OA
HETATM   44  H   UNK     0      15.887  13.514  12.549  0.00  0.00     0.167 HD
ENDBRANCH  41  43
ENDBRANCH  40  41
ENDBRANCH  39  40
ENDBRANCH  27  39
BRANCH  11  45
HETATM   45  C   UNK     0      14.657   9.722   2.726  0.00  0.00     0.051 C 
BRANCH  45  46
HETATM   46  C   UNK     0      13.630  10.775   2.517  0.00  0.00     0.114 C 
BRANCH  46  47
HETATM   47  C   UNK     0      12.839  10.388   1.313  0.00  0.00     0.139 C 
HETATM   48  O   UNK     0      13.255   9.462   0.604  0.00  0.00    -0.650 OA
BRANCH  47  49
HETATM   49  O   UNK     0      11.676  11.043   0.997  0.00  0.00    -0.776 OA
HETATM   50  H   UNK     0      10.873  11.069   1.636  0.00  0.00     0.167 HD
ENDBRANCH  47  49
ENDBRANCH  46  47
ENDBRANCH  45  46
ENDBRANCH  11  45
BRANCH  18  51
HETATM   51  C   UNK     0      11.909  14.287   7.240  0.00  0.00     0.051 C 
BRANCH  51  52
HETATM   52  C   UNK     0      12.794  15.402   7.777  0.00  0.00     0.114 C 
BRANCH  52  53
HETATM   53  C   UNK     0      12.681  16.631   6.969  0.00  0.00     0.139 C 
HETATM   54  O   UNK     0      13.689  17.116   6.431  0.00  0.00    -0.650 OA
BRANCH  53  55
HETATM   55  O   UNK     0      11.456  17.236   6.820  0.00  0.00    -0.776 OA
HETATM   56  H   UNK     0      10.713  17.221   7.479  0.00  0.00     0.167 HD
ENDBRANCH  53  55
ENDBRANCH  52  53
ENDBRANCH  51  52
ENDBRANCH  18  51
TORSDOF 16
ENDMDL
