MODEL 1
REMARK VINA RESULT:     -10.1      0.000      0.000
REMARK  28 active torsions:
REMARK  status: ('A' for Active; 'I' for Inactive)
REMARK    1  A    between atoms: C_2  and  O_3 
REMARK    2  A    between atoms: C_2  and  C_4 
REMARK    3  A    between atoms: C_4  and  C_5 
REMARK    4  A    between atoms: C_5  and  C_6 
REMARK    5  A    between atoms: C_7  and  C_8 
REMARK    6  A    between atoms: C_8  and  C_9 
REMARK    7  A    between atoms: C_9  and  O_11 
REMARK    8  A    between atoms: C_28  and  C_29 
REMARK    9  A    between atoms: C_29  and  C_30 
REMARK   10  A    between atoms: C_30  and  O_32 
REMARK   11  A    between atoms: C_33  and  C_34 
REMARK   12  A    between atoms: C_34  and  C_35 
REMARK   13  A    between atoms: C_35  and  C_36 
REMARK   14  A    between atoms: C_36  and  O_38 
REMARK   15  A    between atoms: C_39  and  C_40 
REMARK   16  A    between atoms: C_40  and  C_41 
REMARK   17  A    between atoms: C_41  and  C_42 
REMARK   18  A    between atoms: C_42  and  O_44 
REMARK   19  A    between atoms: C_45  and  C_46 
REMARK   20  A    between atoms: C_46  and  C_47 
REMARK   21  A    between atoms: C_47  and  O_49 
REMARK   22  A    between atoms: C_50  and  C_51 
REMARK   23  A    between atoms: C_51  and  C_52 
REMARK   24  A    between atoms: C_52  and  O_54 
REMARK   25  A    between atoms: C_55  and  C_56 
REMARK   26  A    between atoms: C_56  and  C_57 
REMARK   27  A    between atoms: C_57  and  C_58 
REMARK   28  A    between atoms: C_58  and  O_60 
ROOT
ATOM      1  O   UNK d   0     -22.943  -3.168 -22.975  0.00  0.00    -0.650 OA
ATOM      2  C   UNK d   0     -23.015  -3.795 -21.895  0.00  0.00     0.139 C 
ENDROOT
BRANCH   2   3
ATOM      3  O   UNK d   0     -24.240  -3.971 -21.299  0.00  0.00    -0.776 OA
ATOM      4  H   UNK d   0     -25.066  -4.212 -21.851  0.00  0.00     0.167 HD
ENDBRANCH   2   3
BRANCH   2   5
ATOM      5  C   UNK d   0     -21.781  -4.342 -21.263  0.00  0.00     0.115 C 
BRANCH   5   6
ATOM      6  C   UNK d   0     -21.915  -5.828 -21.068  0.00  0.00     0.052 C 
BRANCH   6   7
ATOM      7  C   UNK d   0     -22.264  -6.553 -22.345  0.00  0.00    -0.020 A 
ATOM      8  C   UNK d   0     -23.184  -7.468 -22.517  0.00  0.00    -0.011 A 
ATOM      9  C   UNK d   0     -23.146  -7.879 -23.911  0.00  0.00     0.067 A 
ATOM     10  C   UNK d   0     -23.859  -8.777 -24.721  0.00  0.00     0.062 C 
ATOM     11  N   UNK d   0     -22.170  -7.168 -24.512  0.00  0.00    -0.248 NA
ATOM     12  C   UNK d   0     -23.863  -8.836 -26.119  0.00  0.00     0.041 A 
ATOM     13  N   UNK d   0     -22.862  -8.739 -27.013  0.00  0.00    -0.355 N 
ATOM     14  C   UNK d   0     -25.093  -8.966 -26.791  0.00  0.00    -0.022 A 
ATOM     15  C   UNK d   0     -23.424  -8.795 -28.235  0.00  0.00     0.042 A 
ATOM     16  H   UNK d   0     -21.776  -8.651 -26.785  0.00  0.00     0.166 HD
ATOM     17  C   UNK d   0     -22.836  -8.740 -29.515  0.00  0.00     0.062 C 
ATOM     18  C   UNK d   0     -24.822  -8.937 -28.136  0.00  0.00    -0.013 A 
ATOM     19  C   UNK d   0     -21.865  -7.892 -29.982  0.00  0.00     0.067 A 
ATOM     20  N   UNK d   0     -21.233  -7.139 -29.077  0.00  0.00    -0.248 NA
ATOM     21  C   UNK d   0     -21.306  -7.557 -31.281  0.00  0.00    -0.011 A 
ATOM     22  C   UNK d   0     -20.304  -6.336 -29.691  0.00  0.00     0.066 A 
ATOM     23  C   UNK d   0     -19.546  -5.525 -28.860  0.00  0.00     0.062 C 
ATOM     24  C   UNK d   0     -20.397  -6.643 -31.105  0.00  0.00    -0.020 A 
ATOM     25  C   UNK d   0     -19.548  -5.489 -27.457  0.00  0.00     0.041 A 
ATOM     26  N   UNK d   0     -20.545  -5.571 -26.568  0.00  0.00    -0.355 N 
ATOM     27  C   UNK d   0     -18.313  -5.363 -26.783  0.00  0.00    -0.022 A 
ATOM     28  C   UNK d   0     -19.987  -5.506 -25.348  0.00  0.00     0.042 A 
ATOM     29  H   UNK d   0     -21.636  -5.649 -26.799  0.00  0.00     0.166 HD
ATOM     30  C   UNK d   0     -20.560  -5.551 -24.068  0.00  0.00     0.062 C 
ATOM     31  C   UNK d   0     -18.582  -5.374 -25.449  0.00  0.00    -0.013 A 
ATOM     32  C   UNK d   0     -21.601  -6.351 -23.625  0.00  0.00     0.066 A 
BRANCH   8  33
ATOM     33  C   UNK d   0     -24.101  -8.005 -21.495  0.00  0.00     0.151 C 
BRANCH  33  34
ATOM     34  C   UNK d   0     -24.980  -6.972 -20.918  0.00  0.00     0.143 C 
ATOM     35  O   UNK d   0     -24.805  -6.561 -19.762  0.00  0.00    -0.650 OA
BRANCH  34  36
ATOM     36  O   UNK d   0     -26.008  -6.460 -21.675  0.00  0.00    -0.776 OA
ATOM     37  H   UNK d   0     -26.858  -6.081 -21.236  0.00  0.00     0.167 HD
ENDBRANCH  34  36
ENDBRANCH  33  34
ENDBRANCH   8  33
BRANCH  31  38
ATOM     38  C   UNK d   0     -17.567  -5.278 -24.334  0.00  0.00     0.151 C 
BRANCH  38  39
ATOM     39  C   UNK d   0     -17.632  -4.020 -23.622  0.00  0.00     0.143 C 
ATOM     40  O   UNK d   0     -17.376  -2.932 -24.167  0.00  0.00    -0.650 OA
BRANCH  39  41
ATOM     41  O   UNK d   0     -17.995  -4.012 -22.275  0.00  0.00    -0.776 OA
ATOM     42  H   UNK d   0     -18.607  -3.250 -21.966  0.00  0.00     0.167 HD
ENDBRANCH  39  41
ENDBRANCH  38  39
ENDBRANCH  31  38
BRANCH  27  43
ATOM     43  C   UNK d   0     -16.921  -5.234 -27.349  0.00  0.00     0.052 C 
BRANCH  43  44
ATOM     44  C   UNK d   0     -16.052  -6.414 -27.057  0.00  0.00     0.115 C 
BRANCH  44  45
ATOM     45  C   UNK d   0     -14.647  -5.947 -27.179  0.00  0.00     0.139 C 
ATOM     46  O   UNK d   0     -14.138  -5.894 -28.326  0.00  0.00    -0.650 OA
BRANCH  45  47
ATOM     47  O   UNK d   0     -13.889  -5.568 -26.092  0.00  0.00    -0.776 OA
ATOM     48  H   UNK d   0     -14.276  -5.493 -25.137  0.00  0.00     0.167 HD
ENDBRANCH  45  47
ENDBRANCH  44  45
ENDBRANCH  43  44
ENDBRANCH  27  43
BRANCH  24  49
ATOM     49  C   UNK d   0     -19.553  -6.043 -32.153  0.00  0.00     0.052 C 
BRANCH  49  50
ATOM     50  C   UNK d   0     -18.227  -6.755 -32.229  0.00  0.00     0.115 C 
BRANCH  50  51
ATOM     51  C   UNK d   0     -18.069  -7.758 -33.274  0.00  0.00     0.139 C 
ATOM     52  O   UNK d   0     -17.783  -7.461 -34.458  0.00  0.00    -0.650 OA
BRANCH  51  53
ATOM     53  O   UNK d   0     -18.241  -9.099 -32.969  0.00  0.00    -0.776 OA
ATOM     54  H   UNK d   0     -19.169  -9.482 -33.016  0.00  0.00     0.167 HD
ENDBRANCH  51  53
ENDBRANCH  50  51
ENDBRANCH  49  50
ENDBRANCH  24  49
BRANCH  21  55
ATOM     55  C   UNK d   0     -21.738  -8.189 -32.563  0.00  0.00     0.151 C 
BRANCH  55  56
ATOM     56  C   UNK d   0     -21.710  -9.658 -32.490  0.00  0.00     0.143 C 
ATOM     57  O   UNK d   0     -22.681 -10.368 -32.819  0.00  0.00    -0.650 OA
BRANCH  56  58
ATOM     58  O   UNK d   0     -20.541 -10.264 -32.033  0.00  0.00    -0.776 OA
ATOM     59  H   UNK d   0     -20.265 -10.006 -31.068  0.00  0.00     0.167 HD
ENDBRANCH  56  58
ENDBRANCH  55  56
ENDBRANCH  21  55
BRANCH  18  60
ATOM     60  C   UNK d   0     -25.857  -9.039 -29.229  0.00  0.00     0.151 C 
BRANCH  60  61
ATOM     61  C   UNK d   0     -26.242  -7.656 -29.550  0.00  0.00     0.143 C 
ATOM     62  O   UNK d   0     -26.878  -6.878 -28.838  0.00  0.00    -0.650 OA
BRANCH  61  63
ATOM     63  O   UNK d   0     -25.823  -7.193 -30.820  0.00  0.00    -0.776 OA
ATOM     64  H   UNK d   0     -24.901  -6.817 -30.957  0.00  0.00     0.167 HD
ENDBRANCH  61  63
ENDBRANCH  60  61
ENDBRANCH  18  60
BRANCH  14  65
ATOM     65  C   UNK d   0     -26.478  -9.212 -26.263  0.00  0.00     0.052 C 
BRANCH  65  66
ATOM     66  C   UNK d   0     -27.005  -8.075 -25.463  0.00  0.00     0.115 C 
BRANCH  66  67
ATOM     67  C   UNK d   0     -27.420  -8.292 -24.105  0.00  0.00     0.139 C 
ATOM     68  O   UNK d   0     -26.661  -8.989 -23.336  0.00  0.00    -0.650 OA
BRANCH  67  69
ATOM     69  O   UNK d   0     -28.580  -7.831 -23.483  0.00  0.00    -0.776 OA
ATOM     70  H   UNK d   0     -29.022  -7.007 -23.914  0.00  0.00     0.167 HD
ENDBRANCH  67  69
ENDBRANCH  66  67
ENDBRANCH  65  66
ENDBRANCH  14  65
ENDBRANCH   6   7
ENDBRANCH   5   6
ENDBRANCH   2   5
TORSDOF 28
ENDMDL
MODEL 2
REMARK VINA RESULT:      -9.9      1.468      7.264
REMARK  28 active torsions:
REMARK  status: ('A' for Active; 'I' for Inactive)
REMARK    1  A    between atoms: C_2  and  O_3 
REMARK    2  A    between atoms: C_2  and  C_4 
REMARK    3  A    between atoms: C_4  and  C_5 
REMARK    4  A    between atoms: C_5  and  C_6 
REMARK    5  A    between atoms: C_7  and  C_8 
REMARK    6  A    between atoms: C_8  and  C_9 
REMARK    7  A    between atoms: C_9  and  O_11 
REMARK    8  A    between atoms: C_28  and  C_29 
REMARK    9  A    between atoms: C_29  and  C_30 
REMARK   10  A    between atoms: C_30  and  O_32 
REMARK   11  A    between atoms: C_33  and  C_34 
REMARK   12  A    between atoms: C_34  and  C_35 
REMARK   13  A    between atoms: C_35  and  C_36 
REMARK   14  A    between atoms: C_36  and  O_38 
REMARK   15  A    between atoms: C_39  and  C_40 
REMARK   16  A    between atoms: C_40  and  C_41 
REMARK   17  A    between atoms: C_41  and  C_42 
REMARK   18  A    between atoms: C_42  and  O_44 
REMARK   19  A    between atoms: C_45  and  C_46 
REMARK   20  A    between atoms: C_46  and  C_47 
REMARK   21  A    between atoms: C_47  and  O_49 
REMARK   22  A    between atoms: C_50  and  C_51 
REMARK   23  A    between atoms: C_51  and  C_52 
REMARK   24  A    between atoms: C_52  and  O_54 
REMARK   25  A    between atoms: C_55  and  C_56 
REMARK   26  A    between atoms: C_56  and  C_57 
REMARK   27  A    between atoms: C_57  and  C_58 
REMARK   28  A    between atoms: C_58  and  O_60 
ROOT
ATOM      1  O   UNK d   0     -24.754  -7.172 -18.809  0.00  0.00    -0.650 OA
ATOM      2  C   UNK d   0     -25.644  -6.941 -19.657  0.00  0.00     0.139 C 
ENDROOT
BRANCH   2   3
ATOM      3  O   UNK d   0     -26.838  -6.395 -19.250  0.00  0.00    -0.776 OA
ATOM      4  H   UNK d   0     -27.207  -5.549 -19.688  0.00  0.00     0.167 HD
ENDBRANCH   2   3
BRANCH   2   5
ATOM      5  C   UNK d   0     -25.408  -7.258 -21.094  0.00  0.00     0.115 C 
BRANCH   5   6
ATOM      6  C   UNK d   0     -24.119  -8.017 -21.252  0.00  0.00     0.052 C 
BRANCH   6   7
ATOM      7  C   UNK d   0     -23.193  -7.387 -22.265  0.00  0.00    -0.020 A 
ATOM      8  C   UNK d   0     -22.307  -6.446 -22.060  0.00  0.00    -0.011 A 
ATOM      9  C   UNK d   0     -21.663  -6.157 -23.330  0.00  0.00     0.067 A 
ATOM     10  C   UNK d   0     -20.647  -5.298 -23.778  0.00  0.00     0.062 C 
ATOM     11  N   UNK d   0     -22.223  -6.963 -24.256  0.00  0.00    -0.248 NA
ATOM     12  C   UNK d   0     -19.964  -5.357 -24.998  0.00  0.00     0.041 A 
ATOM     13  N   UNK d   0     -20.405  -5.579 -26.251  0.00  0.00    -0.355 N 
ATOM     14  C   UNK d   0     -18.564  -5.225 -25.001  0.00  0.00    -0.022 A 
ATOM     15  C   UNK d   0     -19.320  -5.599 -27.047  0.00  0.00     0.042 A 
ATOM     16  H   UNK d   0     -21.464  -5.699 -26.568  0.00  0.00     0.166 HD
ATOM     17  C   UNK d   0     -19.212  -5.791 -28.439  0.00  0.00     0.062 C 
ATOM     18  C   UNK d   0     -18.147  -5.381 -26.299  0.00  0.00    -0.013 A 
ATOM     19  C   UNK d   0     -19.834  -6.722 -29.232  0.00  0.00     0.067 A 
ATOM     20  N   UNK d   0     -20.824  -7.425 -28.677  0.00  0.00    -0.248 NA
ATOM     21  C   UNK d   0     -19.690  -7.192 -30.600  0.00  0.00    -0.011 A 
ATOM     22  C   UNK d   0     -21.337  -8.322 -29.581  0.00  0.00     0.066 A 
ATOM     23  C   UNK d   0     -22.403  -9.095 -29.146  0.00  0.00     0.062 C 
ATOM     24  C   UNK d   0     -20.569  -8.131 -30.796  0.00  0.00    -0.020 A 
ATOM     25  C   UNK d   0     -23.083  -9.011 -27.921  0.00  0.00     0.041 A 
ATOM     26  N   UNK d   0     -22.643  -8.805 -26.674  0.00  0.00    -0.355 N 
ATOM     27  C   UNK d   0     -24.489  -9.139 -27.919  0.00  0.00    -0.022 A 
ATOM     28  C   UNK d   0     -23.723  -8.794 -25.876  0.00  0.00     0.042 A 
ATOM     29  H   UNK d   0     -21.578  -8.695 -26.354  0.00  0.00     0.166 HD
ATOM     30  C   UNK d   0     -23.844  -8.613 -24.489  0.00  0.00     0.062 C 
ATOM     31  C   UNK d   0     -24.902  -9.002 -26.630  0.00  0.00    -0.013 A 
ATOM     32  C   UNK d   0     -23.151  -7.728 -23.679  0.00  0.00     0.066 A 
BRANCH   8  33
ATOM     33  C   UNK d   0     -22.003  -5.781 -20.779  0.00  0.00     0.151 C 
BRANCH  33  34
ATOM     34  C   UNK d   0     -22.895  -4.640 -20.503  0.00  0.00     0.143 C 
ATOM     35  O   UNK d   0     -23.287  -3.903 -21.419  0.00  0.00    -0.650 OA
BRANCH  34  36
ATOM     36  O   UNK d   0     -23.294  -4.392 -19.210  0.00  0.00    -0.776 OA
ATOM     37  H   UNK d   0     -23.702  -3.486 -18.942  0.00  0.00     0.167 HD
ENDBRANCH  34  36
ENDBRANCH  33  34
ENDBRANCH   8  33
BRANCH  31  38
ATOM     38  C   UNK d   0     -26.331  -9.052 -26.142  0.00  0.00     0.151 C 
BRANCH  38  39
ATOM     39  C   UNK d   0     -26.964  -7.750 -26.121  0.00  0.00     0.143 C 
ATOM     40  O   UNK d   0     -27.051  -7.037 -27.136  0.00  0.00    -0.650 OA
BRANCH  39  41
ATOM     41  O   UNK d   0     -27.500  -7.267 -24.928  0.00  0.00    -0.776 OA
ATOM     42  H   UNK d   0     -27.054  -6.436 -24.525  0.00  0.00     0.167 HD
ENDBRANCH  39  41
ENDBRANCH  38  39
ENDBRANCH  31  38
BRANCH  27  43
ATOM     43  C   UNK d   0     -25.430  -9.383 -29.072  0.00  0.00     0.052 C 
BRANCH  43  44
ATOM     44  C   UNK d   0     -26.092 -10.722 -29.022  0.00  0.00     0.115 C 
BRANCH  44  45
ATOM     45  C   UNK d   0     -25.118 -11.698 -29.579  0.00  0.00     0.139 C 
ATOM     46  O   UNK d   0     -25.085 -12.850 -29.082  0.00  0.00    -0.650 OA
BRANCH  45  47
ATOM     47  O   UNK d   0     -24.263 -11.391 -30.615  0.00  0.00    -0.776 OA
ATOM     48  H   UNK d   0     -23.281 -11.108 -30.466  0.00  0.00     0.167 HD
ENDBRANCH  45  47
ENDBRANCH  44  45
ENDBRANCH  43  44
ENDBRANCH  27  43
BRANCH  24  49
ATOM     49  C   UNK d   0     -20.797  -8.858 -32.057  0.00  0.00     0.052 C 
BRANCH  49  50
ATOM     50  C   UNK d   0     -21.957  -8.256 -32.808  0.00  0.00     0.115 C 
BRANCH  50  51
ATOM     51  C   UNK d   0     -23.121  -9.104 -33.025  0.00  0.00     0.139 C 
ATOM     52  O   UNK d   0     -24.193  -8.955 -32.393  0.00  0.00    -0.650 OA
BRANCH  51  53
ATOM     53  O   UNK d   0     -23.061 -10.124 -33.961  0.00  0.00    -0.776 OA
ATOM     54  H   UNK d   0     -23.434  -9.951 -34.878  0.00  0.00     0.167 HD
ENDBRANCH  51  53
ENDBRANCH  50  51
ENDBRANCH  49  50
ENDBRANCH  24  49
BRANCH  21  55
ATOM     55  C   UNK d   0     -18.691  -6.651 -31.568  0.00  0.00     0.151 C 
BRANCH  55  56
ATOM     56  C   UNK d   0     -17.497  -7.506 -31.664  0.00  0.00     0.143 C 
ATOM     57  O   UNK d   0     -17.037  -8.134 -30.691  0.00  0.00    -0.650 OA
BRANCH  56  58
ATOM     58  O   UNK d   0     -16.868  -7.604 -32.904  0.00  0.00    -0.776 OA
ATOM     59  H   UNK d   0     -16.374  -8.499 -33.073  0.00  0.00     0.167 HD
ENDBRANCH  56  58
ENDBRANCH  55  56
ENDBRANCH  21  55
BRANCH  18  60
ATOM     60  C   UNK d   0     -16.711  -5.323 -26.759  0.00  0.00     0.151 C 
BRANCH  60  61
ATOM     61  C   UNK d   0     -16.268  -6.721 -26.876  0.00  0.00     0.143 C 
ATOM     62  O   UNK d   0     -16.189  -7.553 -25.972  0.00  0.00    -0.650 OA
BRANCH  61  63
ATOM     63  O   UNK d   0     -15.897  -7.127 -28.180  0.00  0.00    -0.776 OA
ATOM     64  H   UNK d   0     -16.343  -7.909 -28.626  0.00  0.00     0.167 HD
ENDBRANCH  61  63
ENDBRANCH  60  61
ENDBRANCH  18  60
BRANCH  14  65
ATOM     65  C   UNK d   0     -17.610  -4.869 -23.896  0.00  0.00     0.052 C 
BRANCH  65  66
ATOM     66  C   UNK d   0     -17.483  -3.401 -23.688  0.00  0.00     0.115 C 
BRANCH  66  67
ATOM     67  C   UNK d   0     -16.204  -2.836 -23.363  0.00  0.00     0.139 C 
ATOM     68  O   UNK d   0     -15.195  -3.625 -23.253  0.00  0.00    -0.650 OA
BRANCH  67  69
ATOM     69  O   UNK d   0     -15.896  -1.495 -23.140  0.00  0.00    -0.776 OA
ATOM     70  H   UNK d   0     -15.657  -1.245 -22.169  0.00  0.00     0.167 HD
ENDBRANCH  67  69
ENDBRANCH  66  67
ENDBRANCH  65  66
ENDBRANCH  14  65
ENDBRANCH   6   7
ENDBRANCH   5   6
ENDBRANCH   2   5
TORSDOF 28
ENDMDL
MODEL 3
REMARK VINA RESULT:      -9.7      1.653      7.206
REMARK  28 active torsions:
REMARK  status: ('A' for Active; 'I' for Inactive)
REMARK    1  A    between atoms: C_2  and  O_3 
REMARK    2  A    between atoms: C_2  and  C_4 
REMARK    3  A    between atoms: C_4  and  C_5 
REMARK    4  A    between atoms: C_5  and  C_6 
REMARK    5  A    between atoms: C_7  and  C_8 
REMARK    6  A    between atoms: C_8  and  C_9 
REMARK    7  A    between atoms: C_9  and  O_11 
REMARK    8  A    between atoms: C_28  and  C_29 
REMARK    9  A    between atoms: C_29  and  C_30 
REMARK   10  A    between atoms: C_30  and  O_32 
REMARK   11  A    between atoms: C_33  and  C_34 
REMARK   12  A    between atoms: C_34  and  C_35 
REMARK   13  A    between atoms: C_35  and  C_36 
REMARK   14  A    between atoms: C_36  and  O_38 
REMARK   15  A    between atoms: C_39  and  C_40 
REMARK   16  A    between atoms: C_40  and  C_41 
REMARK   17  A    between atoms: C_41  and  C_42 
REMARK   18  A    between atoms: C_42  and  O_44 
REMARK   19  A    between atoms: C_45  and  C_46 
REMARK   20  A    between atoms: C_46  and  C_47 
REMARK   21  A    between atoms: C_47  and  O_49 
REMARK   22  A    between atoms: C_50  and  C_51 
REMARK   23  A    between atoms: C_51  and  C_52 
REMARK   24  A    between atoms: C_52  and  O_54 
REMARK   25  A    between atoms: C_55  and  C_56 
REMARK   26  A    between atoms: C_56  and  C_57 
REMARK   27  A    between atoms: C_57  and  C_58 
REMARK   28  A    between atoms: C_58  and  O_60 
ROOT
ATOM      1  O   UNK d   0     -25.420  -8.180 -18.772  0.00  0.00    -0.650 OA
ATOM      2  C   UNK d   0     -24.391  -8.876 -18.919  0.00  0.00     0.139 C 
ENDROOT
BRANCH   2   3
ATOM      3  O   UNK d   0     -24.005  -9.729 -17.913  0.00  0.00    -0.776 OA
ATOM      4  H   UNK d   0     -24.499  -9.747 -17.018  0.00  0.00     0.167 HD
ENDBRANCH   2   3
BRANCH   2   5
ATOM      5  C   UNK d   0     -23.593  -8.777 -20.174  0.00  0.00     0.115 C 
BRANCH   5   6
ATOM      6  C   UNK d   0     -24.252  -7.822 -21.132  0.00  0.00     0.052 C 
BRANCH   6   7
ATOM      7  C   UNK d   0     -23.276  -7.216 -22.112  0.00  0.00    -0.020 A 
ATOM      8  C   UNK d   0     -22.414  -6.257 -21.890  0.00  0.00    -0.011 A 
ATOM      9  C   UNK d   0     -21.700  -6.005 -23.131  0.00  0.00     0.067 A 
ATOM     10  C   UNK d   0     -20.670  -5.149 -23.550  0.00  0.00     0.062 C 
ATOM     11  N   UNK d   0     -22.197  -6.851 -24.058  0.00  0.00    -0.248 NA
ATOM     12  C   UNK d   0     -19.917  -5.243 -24.726  0.00  0.00     0.041 A 
ATOM     13  N   UNK d   0     -20.282  -5.514 -25.993  0.00  0.00    -0.355 N 
ATOM     14  C   UNK d   0     -18.520  -5.093 -24.653  0.00  0.00    -0.022 A 
ATOM     15  C   UNK d   0     -19.152  -5.549 -26.725  0.00  0.00     0.042 A 
ATOM     16  H   UNK d   0     -21.319  -5.660 -26.367  0.00  0.00     0.166 HD
ATOM     17  C   UNK d   0     -18.961  -5.789 -28.100  0.00  0.00     0.062 C 
ATOM     18  C   UNK d   0     -18.026  -5.290 -25.919  0.00  0.00    -0.013 A 
ATOM     19  C   UNK d   0     -19.526  -6.754 -28.894  0.00  0.00     0.067 A 
ATOM     20  N   UNK d   0     -20.539  -7.450 -28.371  0.00  0.00    -0.248 NA
ATOM     21  C   UNK d   0     -19.297  -7.271 -30.233  0.00  0.00    -0.011 A 
ATOM     22  C   UNK d   0     -20.989  -8.385 -29.271  0.00  0.00     0.066 A 
ATOM     23  C   UNK d   0     -22.070  -9.156 -28.870  0.00  0.00     0.062 C 
ATOM     24  C   UNK d   0     -20.154  -8.228 -30.446  0.00  0.00    -0.020 A 
ATOM     25  C   UNK d   0     -22.821  -9.038 -27.690  0.00  0.00     0.041 A 
ATOM     26  N   UNK d   0     -22.456  -8.782 -26.428  0.00  0.00    -0.355 N 
ATOM     27  C   UNK d   0     -24.223  -9.183 -27.765  0.00  0.00    -0.022 A 
ATOM     28  C   UNK d   0     -23.581  -8.756 -25.695  0.00  0.00     0.042 A 
ATOM     29  H   UNK d   0     -21.412  -8.647 -26.052  0.00  0.00     0.166 HD
ATOM     30  C   UNK d   0     -23.784  -8.528 -24.325  0.00  0.00     0.062 C 
ATOM     31  C   UNK d   0     -24.712  -9.006 -26.507  0.00  0.00    -0.013 A 
ATOM     32  C   UNK d   0     -23.148  -7.607 -23.508  0.00  0.00     0.066 A 
BRANCH   8  33
ATOM     33  C   UNK d   0     -22.192  -5.543 -20.619  0.00  0.00     0.151 C 
BRANCH  33  34
ATOM     34  C   UNK d   0     -22.948  -4.280 -20.535  0.00  0.00     0.143 C 
ATOM     35  O   UNK d   0     -23.382  -3.729 -21.556  0.00  0.00    -0.650 OA
BRANCH  34  36
ATOM     36  O   UNK d   0     -23.171  -3.708 -19.304  0.00  0.00    -0.776 OA
ATOM     37  H   UNK d   0     -22.413  -3.609 -18.615  0.00  0.00     0.167 HD
ENDBRANCH  34  36
ENDBRANCH  33  34
ENDBRANCH   8  33
BRANCH  31  38
ATOM     38  C   UNK d   0     -26.166  -9.057 -26.101  0.00  0.00     0.151 C 
BRANCH  38  39
ATOM     39  C   UNK d   0     -26.805  -7.759 -26.133  0.00  0.00     0.143 C 
ATOM     40  O   UNK d   0     -26.845  -7.063 -27.163  0.00  0.00    -0.650 OA
BRANCH  39  41
ATOM     41  O   UNK d   0     -27.400  -7.258 -24.976  0.00  0.00    -0.776 OA
ATOM     42  H   UNK d   0     -27.471  -7.898 -24.179  0.00  0.00     0.167 HD
ENDBRANCH  39  41
ENDBRANCH  38  39
ENDBRANCH  31  38
BRANCH  27  43
ATOM     43  C   UNK d   0     -25.093  -9.480 -28.961  0.00  0.00     0.052 C 
BRANCH  43  44
ATOM     44  C   UNK d   0     -25.406  -8.270 -29.779  0.00  0.00     0.115 C 
BRANCH  44  45
ATOM     45  C   UNK d   0     -24.581  -8.366 -31.012  0.00  0.00     0.139 C 
ATOM     46  O   UNK d   0     -23.883  -7.373 -31.335  0.00  0.00    -0.650 OA
BRANCH  45  47
ATOM     47  O   UNK d   0     -24.549  -9.494 -31.803  0.00  0.00    -0.776 OA
ATOM     48  H   UNK d   0     -23.796 -10.199 -31.743  0.00  0.00     0.167 HD
ENDBRANCH  45  47
ENDBRANCH  44  45
ENDBRANCH  43  44
ENDBRANCH  27  43
BRANCH  24  49
ATOM     49  C   UNK d   0     -20.300  -9.002 -31.691  0.00  0.00     0.052 C 
BRANCH  49  50
ATOM     50  C   UNK d   0     -19.865 -10.428 -31.476  0.00  0.00     0.115 C 
BRANCH  50  51
ATOM     51  C   UNK d   0     -18.534 -10.795 -31.941  0.00  0.00     0.139 C 
ATOM     52  O   UNK d   0     -17.729 -11.451 -31.239  0.00  0.00    -0.650 OA
BRANCH  51  53
ATOM     53  O   UNK d   0     -18.120 -10.410 -33.207  0.00  0.00    -0.776 OA
ATOM     54  H   UNK d   0     -17.791  -9.469 -33.334  0.00  0.00     0.167 HD
ENDBRANCH  51  53
ENDBRANCH  50  51
ENDBRANCH  49  50
ENDBRANCH  24  49
BRANCH  21  55
ATOM     55  C   UNK d   0     -18.250  -6.752 -31.161  0.00  0.00     0.151 C 
BRANCH  55  56
ATOM     56  C   UNK d   0     -17.039  -7.588 -31.149  0.00  0.00     0.143 C 
ATOM     57  O   UNK d   0     -16.506  -8.017 -32.190  0.00  0.00    -0.650 OA
BRANCH  56  58
ATOM     58  O   UNK d   0     -16.479  -7.901 -29.912  0.00  0.00    -0.776 OA
ATOM     59  H   UNK d   0     -15.464  -7.712 -29.832  0.00  0.00     0.167 HD
ENDBRANCH  56  58
ENDBRANCH  55  56
ENDBRANCH  21  55
BRANCH  18  60
ATOM     60  C   UNK d   0     -16.567  -5.230 -26.297  0.00  0.00     0.151 C 
BRANCH  60  61
ATOM     61  C   UNK d   0     -16.083  -6.618 -26.262  0.00  0.00     0.143 C 
ATOM     62  O   UNK d   0     -16.341  -7.473 -25.414  0.00  0.00    -0.650 OA
BRANCH  61  63
ATOM     63  O   UNK d   0     -15.231  -6.986 -27.331  0.00  0.00    -0.776 OA
ATOM     64  H   UNK d   0     -14.407  -6.453 -27.545  0.00  0.00     0.167 HD
ENDBRANCH  61  63
ENDBRANCH  60  61
ENDBRANCH  18  60
BRANCH  14  65
ATOM     65  C   UNK d   0     -17.635  -4.686 -23.509  0.00  0.00     0.052 C 
BRANCH  65  66
ATOM     66  C   UNK d   0     -17.361  -3.224 -23.478  0.00  0.00     0.115 C 
BRANCH  66  67
ATOM     67  C   UNK d   0     -16.180  -2.735 -22.825  0.00  0.00     0.139 C 
ATOM     68  O   UNK d   0     -15.811  -1.524 -23.050  0.00  0.00    -0.650 OA
BRANCH  67  69
ATOM     69  O   UNK d   0     -15.344  -3.423 -21.946  0.00  0.00    -0.776 OA
ATOM     70  H   UNK d   0     -15.720  -3.580 -21.000  0.00  0.00     0.167 HD
ENDBRANCH  67  69
ENDBRANCH  66  67
ENDBRANCH  65  66
ENDBRANCH  14  65
ENDBRANCH   6   7
ENDBRANCH   5   6
ENDBRANCH   2   5
TORSDOF 28
ENDMDL
MODEL 4
REMARK VINA RESULT:      -9.2     30.267     34.042
REMARK  28 active torsions:
REMARK  status: ('A' for Active; 'I' for Inactive)
REMARK    1  A    between atoms: C_2  and  O_3 
REMARK    2  A    between atoms: C_2  and  C_4 
REMARK    3  A    between atoms: C_4  and  C_5 
REMARK    4  A    between atoms: C_5  and  C_6 
REMARK    5  A    between atoms: C_7  and  C_8 
REMARK    6  A    between atoms: C_8  and  C_9 
REMARK    7  A    between atoms: C_9  and  O_11 
REMARK    8  A    between atoms: C_28  and  C_29 
REMARK    9  A    between atoms: C_29  and  C_30 
REMARK   10  A    between atoms: C_30  and  O_32 
REMARK   11  A    between atoms: C_33  and  C_34 
REMARK   12  A    between atoms: C_34  and  C_35 
REMARK   13  A    between atoms: C_35  and  C_36 
REMARK   14  A    between atoms: C_36  and  O_38 
REMARK   15  A    between atoms: C_39  and  C_40 
REMARK   16  A    between atoms: C_40  and  C_41 
REMARK   17  A    between atoms: C_41  and  C_42 
REMARK   18  A    between atoms: C_42  and  O_44 
REMARK   19  A    between atoms: C_45  and  C_46 
REMARK   20  A    between atoms: C_46  and  C_47 
REMARK   21  A    between atoms: C_47  and  O_49 
REMARK   22  A    between atoms: C_50  and  C_51 
REMARK   23  A    between atoms: C_51  and  C_52 
REMARK   24  A    between atoms: C_52  and  O_54 
REMARK   25  A    between atoms: C_55  and  C_56 
REMARK   26  A    between atoms: C_56  and  C_57 
REMARK   27  A    between atoms: C_57  and  C_58 
REMARK   28  A    between atoms: C_58  and  O_60 
ROOT
ATOM      1  O   UNK d   0      -1.768 -17.107  -7.530  0.00  0.00    -0.650 OA
ATOM      2  C   UNK d   0      -1.106 -17.765  -6.697  0.00  0.00     0.139 C 
ENDROOT
BRANCH   2   3
ATOM      3  O   UNK d   0      -0.260 -18.754  -7.138  0.00  0.00    -0.776 OA
ATOM      4  H   UNK d   0       0.699 -18.541  -7.420  0.00  0.00     0.167 HD
ENDBRANCH   2   3
BRANCH   2   5
ATOM      5  C   UNK d   0      -1.238 -17.475  -5.241  0.00  0.00     0.115 C 
BRANCH   5   6
ATOM      6  C   UNK d   0      -0.390 -18.430  -4.445  0.00  0.00     0.052 C 
BRANCH   6   7
ATOM      7  C   UNK d   0      -1.197 -19.236  -3.455  0.00  0.00    -0.020 A 
ATOM      8  C   UNK d   0      -1.070 -19.259  -2.153  0.00  0.00    -0.011 A 
ATOM      9  C   UNK d   0      -2.057 -20.187  -1.626  0.00  0.00     0.067 A 
ATOM     10  C   UNK d   0      -2.447 -20.637  -0.355  0.00  0.00     0.062 C 
ATOM     11  N   UNK d   0      -2.737 -20.689  -2.678  0.00  0.00    -0.248 NA
ATOM     12  C   UNK d   0      -3.615 -21.332  -0.024  0.00  0.00     0.041 A 
ATOM     13  N   UNK d   0      -4.244 -22.352  -0.639  0.00  0.00    -0.355 N 
ATOM     14  C   UNK d   0      -4.353 -20.925   1.103  0.00  0.00    -0.022 A 
ATOM     15  C   UNK d   0      -5.366 -22.598   0.065  0.00  0.00     0.042 A 
ATOM     16  H   UNK d   0      -3.892 -22.900  -1.540  0.00  0.00     0.166 HD
ATOM     17  C   UNK d   0      -6.379 -23.555  -0.138  0.00  0.00     0.062 C 
ATOM     18  C   UNK d   0      -5.469 -21.723   1.163  0.00  0.00    -0.013 A 
ATOM     19  C   UNK d   0      -7.010 -23.910  -1.303  0.00  0.00     0.067 A 
ATOM     20  N   UNK d   0      -6.484 -23.448  -2.441  0.00  0.00    -0.248 NA
ATOM     21  C   UNK d   0      -8.182 -24.692  -1.661  0.00  0.00    -0.011 A 
ATOM     22  C   UNK d   0      -7.228 -23.870  -3.516  0.00  0.00     0.066 A 
ATOM     23  C   UNK d   0      -6.769 -23.491  -4.769  0.00  0.00     0.062 C 
ATOM     24  C   UNK d   0      -8.306 -24.662  -2.956  0.00  0.00    -0.020 A 
ATOM     25  C   UNK d   0      -5.586 -22.804  -5.081  0.00  0.00     0.041 A 
ATOM     26  N   UNK d   0      -4.969 -21.780  -4.478  0.00  0.00    -0.355 N 
ATOM     27  C   UNK d   0      -4.844 -23.216  -6.209  0.00  0.00    -0.022 A 
ATOM     28  C   UNK d   0      -3.855 -21.528  -5.183  0.00  0.00     0.042 A 
ATOM     29  H   UNK d   0      -5.330 -21.224  -3.579  0.00  0.00     0.166 HD
ATOM     30  C   UNK d   0      -2.843 -20.572  -4.998  0.00  0.00     0.062 C 
ATOM     31  C   UNK d   0      -3.746 -22.414  -6.281  0.00  0.00    -0.013 A 
ATOM     32  C   UNK d   0      -2.268 -20.156  -3.808  0.00  0.00     0.066 A 
BRANCH   8  33
ATOM     33  C   UNK d   0      -0.104 -18.493  -1.344  0.00  0.00     0.151 C 
BRANCH  33  34
ATOM     34  C   UNK d   0       1.255 -19.062  -1.388  0.00  0.00     0.143 C 
ATOM     35  O   UNK d   0       1.475 -20.214  -0.989  0.00  0.00    -0.650 OA
BRANCH  34  36
ATOM     36  O   UNK d   0       2.290 -18.300  -1.878  0.00  0.00    -0.776 OA
ATOM     37  H   UNK d   0       3.206 -18.718  -2.091  0.00  0.00     0.167 HD
ENDBRANCH  34  36
ENDBRANCH  33  34
ENDBRANCH   8  33
BRANCH  31  38
ATOM     38  C   UNK d   0      -2.652 -22.491  -7.320  0.00  0.00     0.151 C 
BRANCH  38  39
ATOM     39  C   UNK d   0      -2.902 -21.638  -8.462  0.00  0.00     0.143 C 
ATOM     40  O   UNK d   0      -2.584 -20.436  -8.477  0.00  0.00    -0.650 OA
BRANCH  39  41
ATOM     41  O   UNK d   0      -3.519 -22.170  -9.594  0.00  0.00    -0.776 OA
ATOM     42  H   UNK d   0      -4.473 -22.524  -9.476  0.00  0.00     0.167 HD
ENDBRANCH  39  41
ENDBRANCH  38  39
ENDBRANCH  31  38
BRANCH  27  43
ATOM     43  C   UNK d   0      -5.135 -24.316  -7.199  0.00  0.00     0.052 C 
BRANCH  43  44
ATOM     44  C   UNK d   0      -6.397 -24.099  -7.969  0.00  0.00     0.115 C 
BRANCH  44  45
ATOM     45  C   UNK d   0      -6.969 -25.444  -8.236  0.00  0.00     0.139 C 
ATOM     46  O   UNK d   0      -7.719 -25.582  -9.233  0.00  0.00    -0.650 OA
BRANCH  45  47
ATOM     47  O   UNK d   0      -6.705 -26.539  -7.441  0.00  0.00    -0.776 OA
ATOM     48  H   UNK d   0      -7.407 -26.951  -6.804  0.00  0.00     0.167 HD
ENDBRANCH  45  47
ENDBRANCH  44  45
ENDBRANCH  43  44
ENDBRANCH  27  43
BRANCH  24  49
ATOM     49  C   UNK d   0      -9.338 -25.355  -3.747  0.00  0.00     0.052 C 
BRANCH  49  50
ATOM     50  C   UNK d   0      -8.718 -26.458  -4.565  0.00  0.00     0.115 C 
BRANCH  50  51
ATOM     51  C   UNK d   0      -9.258 -27.800  -4.389  0.00  0.00     0.139 C 
ATOM     52  O   UNK d   0     -10.421 -28.011  -3.969  0.00  0.00    -0.650 OA
BRANCH  51  53
ATOM     53  O   UNK d   0      -8.472 -28.901  -4.690  0.00  0.00    -0.776 OA
ATOM     54  H   UNK d   0      -8.413 -29.642  -4.013  0.00  0.00     0.167 HD
ENDBRANCH  51  53
ENDBRANCH  50  51
ENDBRANCH  49  50
ENDBRANCH  24  49
BRANCH  21  55
ATOM     55  C   UNK d   0      -9.052 -25.392  -0.671  0.00  0.00     0.151 C 
BRANCH  55  56
ATOM     56  C   UNK d   0      -8.309 -26.399   0.103  0.00  0.00     0.143 C 
ATOM     57  O   UNK d   0      -8.338 -26.450   1.348  0.00  0.00    -0.650 OA
BRANCH  56  58
ATOM     58  O   UNK d   0      -7.545 -27.327  -0.604  0.00  0.00    -0.776 OA
ATOM     59  H   UNK d   0      -6.679 -27.633  -0.125  0.00  0.00     0.167 HD
ENDBRANCH  56  58
ENDBRANCH  55  56
ENDBRANCH  21  55
BRANCH  18  60
ATOM     60  C   UNK d   0      -6.545 -21.625   2.216  0.00  0.00     0.151 C 
BRANCH  60  61
ATOM     61  C   UNK d   0      -6.878 -23.010   2.583  0.00  0.00     0.143 C 
ATOM     62  O   UNK d   0      -6.115 -23.861   3.039  0.00  0.00    -0.650 OA
BRANCH  61  63
ATOM     63  O   UNK d   0      -8.230 -23.378   2.380  0.00  0.00    -0.776 OA
ATOM     64  H   UNK d   0      -8.823 -22.855   1.760  0.00  0.00     0.167 HD
ENDBRANCH  61  63
ENDBRANCH  60  61
ENDBRANCH  18  60
BRANCH  14  65
ATOM     65  C   UNK d   0      -4.038 -19.917   2.170  0.00  0.00     0.052 C 
BRANCH  65  66
ATOM     66  C   UNK d   0      -4.477 -18.540   1.818  0.00  0.00     0.115 C 
BRANCH  66  67
ATOM     67  C   UNK d   0      -3.503 -17.558   1.434  0.00  0.00     0.139 C 
ATOM     68  O   UNK d   0      -2.314 -17.652   1.916  0.00  0.00    -0.650 OA
BRANCH  67  69
ATOM     69  O   UNK d   0      -3.677 -16.473   0.576  0.00  0.00    -0.776 OA
ATOM     70  H   UNK d   0      -3.316 -16.596  -0.381  0.00  0.00     0.167 HD
ENDBRANCH  67  69
ENDBRANCH  66  67
ENDBRANCH  65  66
ENDBRANCH  14  65
ENDBRANCH   6   7
ENDBRANCH   5   6
ENDBRANCH   2   5
TORSDOF 28
ENDMDL
MODEL 5
REMARK VINA RESULT:      -9.2      1.769      8.588
REMARK  28 active torsions:
REMARK  status: ('A' for Active; 'I' for Inactive)
REMARK    1  A    between atoms: C_2  and  O_3 
REMARK    2  A    between atoms: C_2  and  C_4 
REMARK    3  A    between atoms: C_4  and  C_5 
REMARK    4  A    between atoms: C_5  and  C_6 
REMARK    5  A    between atoms: C_7  and  C_8 
REMARK    6  A    between atoms: C_8  and  C_9 
REMARK    7  A    between atoms: C_9  and  O_11 
REMARK    8  A    between atoms: C_28  and  C_29 
REMARK    9  A    between atoms: C_29  and  C_30 
REMARK   10  A    between atoms: C_30  and  O_32 
REMARK   11  A    between atoms: C_33  and  C_34 
REMARK   12  A    between atoms: C_34  and  C_35 
REMARK   13  A    between atoms: C_35  and  C_36 
REMARK   14  A    between atoms: C_36  and  O_38 
REMARK   15  A    between atoms: C_39  and  C_40 
REMARK   16  A    between atoms: C_40  and  C_41 
REMARK   17  A    between atoms: C_41  and  C_42 
REMARK   18  A    between atoms: C_42  and  O_44 
REMARK   19  A    between atoms: C_45  and  C_46 
REMARK   20  A    between atoms: C_46  and  C_47 
REMARK   21  A    between atoms: C_47  and  O_49 
REMARK   22  A    between atoms: C_50  and  C_51 
REMARK   23  A    between atoms: C_51  and  C_52 
REMARK   24  A    between atoms: C_52  and  O_54 
REMARK   25  A    between atoms: C_55  and  C_56 
REMARK   26  A    between atoms: C_56  and  C_57 
REMARK   27  A    between atoms: C_57  and  C_58 
REMARK   28  A    between atoms: C_58  and  O_60 
ROOT
ATOM      1  O   UNK d   0     -14.156  -5.253 -26.611  0.00  0.00    -0.650 OA
ATOM      2  C   UNK d   0     -14.336  -5.994 -27.603  0.00  0.00     0.139 C 
ENDROOT
BRANCH   2   3
ATOM      3  O   UNK d   0     -13.360  -6.079 -28.566  0.00  0.00    -0.776 OA
ATOM      4  H   UNK d   0     -13.437  -5.559 -29.442  0.00  0.00     0.167 HD
ENDBRANCH   2   3
BRANCH   2   5
ATOM      5  C   UNK d   0     -15.599  -6.775 -27.734  0.00  0.00     0.115 C 
BRANCH   5   6
ATOM      6  C   UNK d   0     -16.261  -6.470 -29.051  0.00  0.00     0.052 C 
BRANCH   6   7
ATOM      7  C   UNK d   0     -17.717  -6.869 -29.075  0.00  0.00    -0.020 A 
ATOM      8  C   UNK d   0     -18.425  -7.244 -30.109  0.00  0.00    -0.011 A 
ATOM      9  C   UNK d   0     -19.776  -7.518 -29.648  0.00  0.00     0.067 A 
ATOM     10  C   UNK d   0     -20.973  -7.963 -30.230  0.00  0.00     0.062 C 
ATOM     11  N   UNK d   0     -19.802  -7.279 -28.320  0.00  0.00    -0.248 NA
ATOM     12  C   UNK d   0     -22.111  -8.438 -29.569  0.00  0.00     0.041 A 
ATOM     13  N   UNK d   0     -22.746  -7.994 -28.467  0.00  0.00    -0.355 N 
ATOM     14  C   UNK d   0     -22.732  -9.610 -30.038  0.00  0.00    -0.022 A 
ATOM     15  C   UNK d   0     -23.749  -8.859 -28.221  0.00  0.00     0.042 A 
ATOM     16  H   UNK d   0     -22.503  -7.077 -27.886  0.00  0.00     0.166 HD
ATOM     17  C   UNK d   0     -24.717  -8.867 -27.198  0.00  0.00     0.062 C 
ATOM     18  C   UNK d   0     -23.771  -9.885 -29.185  0.00  0.00    -0.013 A 
ATOM     19  C   UNK d   0     -24.554  -8.646 -25.854  0.00  0.00     0.067 A 
ATOM     20  N   UNK d   0     -23.371  -8.166 -25.459  0.00  0.00    -0.248 NA
ATOM     21  C   UNK d   0     -25.366  -8.817 -24.661  0.00  0.00    -0.011 A 
ATOM     22  C   UNK d   0     -23.351  -8.012 -24.095  0.00  0.00     0.066 A 
ATOM     23  C   UNK d   0     -22.190  -7.483 -23.551  0.00  0.00     0.062 C 
ATOM     24  C   UNK d   0     -24.655  -8.448 -23.634  0.00  0.00    -0.020 A 
ATOM     25  C   UNK d   0     -21.063  -7.000 -24.234  0.00  0.00     0.041 A 
ATOM     26  N   UNK d   0     -20.423  -7.449 -25.320  0.00  0.00    -0.355 N 
ATOM     27  C   UNK d   0     -20.443  -5.821 -23.765  0.00  0.00    -0.022 A 
ATOM     28  C   UNK d   0     -19.417  -6.594 -25.562  0.00  0.00     0.042 A 
ATOM     29  H   UNK d   0     -20.662  -8.376 -25.897  0.00  0.00     0.166 HD
ATOM     30  C   UNK d   0     -18.441  -6.578 -26.571  0.00  0.00     0.062 C 
ATOM     31  C   UNK d   0     -19.402  -5.556 -24.600  0.00  0.00    -0.013 A 
ATOM     32  C   UNK d   0     -18.594  -6.885 -27.914  0.00  0.00     0.066 A 
BRANCH   8  33
ATOM     33  C   UNK d   0     -17.959  -7.367 -31.503  0.00  0.00     0.151 C 
BRANCH  33  34
ATOM     34  C   UNK d   0     -18.716  -6.514 -32.436  0.00  0.00     0.143 C 
ATOM     35  O   UNK d   0     -19.390  -5.560 -32.022  0.00  0.00    -0.650 OA
BRANCH  34  36
ATOM     36  O   UNK d   0     -18.674  -6.784 -33.784  0.00  0.00    -0.776 OA
ATOM     37  H   UNK d   0     -17.994  -6.319 -34.401  0.00  0.00     0.167 HD
ENDBRANCH  34  36
ENDBRANCH  33  34
ENDBRANCH   8  33
BRANCH  31  38
ATOM     38  C   UNK d   0     -18.455  -4.383 -24.500  0.00  0.00     0.151 C 
BRANCH  38  39
ATOM     39  C   UNK d   0     -17.355  -4.625 -23.590  0.00  0.00     0.143 C 
ATOM     40  O   UNK d   0     -17.066  -3.838 -22.672  0.00  0.00    -0.650 OA
BRANCH  39  41
ATOM     41  O   UNK d   0     -16.584  -5.777 -23.737  0.00  0.00    -0.776 OA
ATOM     42  H   UNK d   0     -17.041  -6.587 -24.168  0.00  0.00     0.167 HD
ENDBRANCH  39  41
ENDBRANCH  38  39
ENDBRANCH  31  38
BRANCH  27  43
ATOM     43  C   UNK d   0     -20.797  -4.960 -22.578  0.00  0.00     0.052 C 
BRANCH  43  44
ATOM     44  C   UNK d   0     -21.943  -4.037 -22.839  0.00  0.00     0.115 C 
BRANCH  44  45
ATOM     45  C   UNK d   0     -22.737  -3.982 -21.583  0.00  0.00     0.139 C 
ATOM     46  O   UNK d   0     -22.172  -4.312 -20.511  0.00  0.00    -0.650 OA
BRANCH  45  47
ATOM     47  O   UNK d   0     -24.055  -3.579 -21.550  0.00  0.00    -0.776 OA
ATOM     48  H   UNK d   0     -24.436  -2.973 -20.806  0.00  0.00     0.167 HD
ENDBRANCH  45  47
ENDBRANCH  44  45
ENDBRANCH  43  44
ENDBRANCH  27  43
BRANCH  24  49
ATOM     49  C   UNK d   0     -25.103  -8.422 -22.232  0.00  0.00     0.052 C 
BRANCH  49  50
ATOM     50  C   UNK d   0     -24.772  -7.095 -21.599  0.00  0.00     0.115 C 
BRANCH  50  51
ATOM     51  C   UNK d   0     -25.146  -6.911 -20.204  0.00  0.00     0.139 C 
ATOM     52  O   UNK d   0     -26.052  -7.580 -19.653  0.00  0.00    -0.650 OA
BRANCH  51  53
ATOM     53  O   UNK d   0     -24.488  -5.963 -19.436  0.00  0.00    -0.776 OA
ATOM     54  H   UNK d   0     -23.674  -5.519 -19.823  0.00  0.00     0.167 HD
ENDBRANCH  51  53
ENDBRANCH  50  51
ENDBRANCH  49  50
ENDBRANCH  24  49
BRANCH  21  55
ATOM     55  C   UNK d   0     -26.769  -9.327 -24.672  0.00  0.00     0.151 C 
BRANCH  55  56
ATOM     56  C   UNK d   0     -27.746  -8.249 -24.888  0.00  0.00     0.143 C 
ATOM     57  O   UNK d   0     -28.152  -7.923 -26.021  0.00  0.00    -0.650 OA
BRANCH  56  58
ATOM     58  O   UNK d   0     -28.226  -7.574 -23.767  0.00  0.00    -0.776 OA
ATOM     59  H   UNK d   0     -27.652  -6.767 -23.464  0.00  0.00     0.167 HD
ENDBRANCH  56  58
ENDBRANCH  55  56
ENDBRANCH  21  55
BRANCH  18  60
ATOM     60  C   UNK d   0     -24.704 -11.065 -29.311  0.00  0.00     0.151 C 
BRANCH  60  61
ATOM     61  C   UNK d   0     -24.070 -12.162 -28.565  0.00  0.00     0.143 C 
ATOM     62  O   UNK d   0     -24.574 -13.245 -28.266  0.00  0.00    -0.650 OA
BRANCH  61  63
ATOM     63  O   UNK d   0     -22.734 -11.923 -28.160  0.00  0.00    -0.776 OA
ATOM     64  H   UNK d   0     -22.015 -11.731 -28.835  0.00  0.00     0.167 HD
ENDBRANCH  61  63
ENDBRANCH  60  61
ENDBRANCH  18  60
BRANCH  14  65
ATOM     65  C   UNK d   0     -22.480 -10.425 -31.275  0.00  0.00     0.052 C 
BRANCH  65  66
ATOM     66  C   UNK d   0     -22.684  -9.654 -32.531  0.00  0.00     0.115 C 
BRANCH  66  67
ATOM     67  C   UNK d   0     -21.598  -8.896 -33.085  0.00  0.00     0.139 C 
ATOM     68  O   UNK d   0     -20.446  -9.458 -33.184  0.00  0.00    -0.650 OA
BRANCH  67  69
ATOM     69  O   UNK d   0     -21.624  -7.582 -33.549  0.00  0.00    -0.776 OA
ATOM     70  H   UNK d   0     -20.857  -7.316 -34.184  0.00  0.00     0.167 HD
ENDBRANCH  67  69
ENDBRANCH  66  67
ENDBRANCH  65  66
ENDBRANCH  14  65
ENDBRANCH   6   7
ENDBRANCH   5   6
ENDBRANCH   2   5
TORSDOF 28
ENDMDL
MODEL 6
REMARK VINA RESULT:      -9.2      2.154     10.462
REMARK  28 active torsions:
REMARK  status: ('A' for Active; 'I' for Inactive)
REMARK    1  A    between atoms: C_2  and  O_3 
REMARK    2  A    between atoms: C_2  and  C_4 
REMARK    3  A    between atoms: C_4  and  C_5 
REMARK    4  A    between atoms: C_5  and  C_6 
REMARK    5  A    between atoms: C_7  and  C_8 
REMARK    6  A    between atoms: C_8  and  C_9 
REMARK    7  A    between atoms: C_9  and  O_11 
REMARK    8  A    between atoms: C_28  and  C_29 
REMARK    9  A    between atoms: C_29  and  C_30 
REMARK   10  A    between atoms: C_30  and  O_32 
REMARK   11  A    between atoms: C_33  and  C_34 
REMARK   12  A    between atoms: C_34  and  C_35 
REMARK   13  A    between atoms: C_35  and  C_36 
REMARK   14  A    between atoms: C_36  and  O_38 
REMARK   15  A    between atoms: C_39  and  C_40 
REMARK   16  A    between atoms: C_40  and  C_41 
REMARK   17  A    between atoms: C_41  and  C_42 
REMARK   18  A    between atoms: C_42  and  O_44 
REMARK   19  A    between atoms: C_45  and  C_46 
REMARK   20  A    between atoms: C_46  and  C_47 
REMARK   21  A    between atoms: C_47  and  O_49 
REMARK   22  A    between atoms: C_50  and  C_51 
REMARK   23  A    between atoms: C_51  and  C_52 
REMARK   24  A    between atoms: C_52  and  O_54 
REMARK   25  A    between atoms: C_55  and  C_56 
REMARK   26  A    between atoms: C_56  and  C_57 
REMARK   27  A    between atoms: C_57  and  C_58 
REMARK   28  A    between atoms: C_58  and  O_60 
ROOT
ATOM      1  O   UNK d   0     -21.252  -9.111 -33.012  0.00  0.00    -0.650 OA
ATOM      2  C   UNK d   0     -20.434  -8.801 -32.117  0.00  0.00     0.139 C 
ENDROOT
BRANCH   2   3
ATOM      3  O   UNK d   0     -20.124  -9.718 -31.142  0.00  0.00    -0.776 OA
ATOM      4  H   UNK d   0     -20.518 -10.660 -31.159  0.00  0.00     0.167 HD
ENDBRANCH   2   3
BRANCH   2   5
ATOM      5  C   UNK d   0     -19.805  -7.450 -32.114  0.00  0.00     0.115 C 
BRANCH   5   6
ATOM      6  C   UNK d   0     -20.724  -6.453 -31.461  0.00  0.00     0.052 C 
BRANCH   6   7
ATOM      7  C   UNK d   0     -20.732  -6.569 -29.955  0.00  0.00    -0.020 A 
ATOM      8  C   UNK d   0     -19.809  -6.169 -29.119  0.00  0.00    -0.011 A 
ATOM      9  C   UNK d   0     -20.252  -6.501 -27.775  0.00  0.00     0.067 A 
ATOM     10  C   UNK d   0     -19.754  -6.330 -26.474  0.00  0.00     0.062 C 
ATOM     11  N   UNK d   0     -21.453  -7.106 -27.887  0.00  0.00    -0.248 NA
ATOM     12  C   UNK d   0     -20.458  -6.469 -25.273  0.00  0.00     0.041 A 
ATOM     13  N   UNK d   0     -21.350  -7.394 -24.870  0.00  0.00    -0.355 N 
ATOM     14  C   UNK d   0     -20.308  -5.485 -24.278  0.00  0.00    -0.022 A 
ATOM     15  C   UNK d   0     -21.775  -7.019 -23.648  0.00  0.00     0.042 A 
ATOM     16  H   UNK d   0     -21.658  -8.304 -25.429  0.00  0.00     0.166 HD
ATOM     17  C   UNK d   0     -22.702  -7.625 -22.778  0.00  0.00     0.062 C 
ATOM     18  C   UNK d   0     -21.144  -5.826 -23.244  0.00  0.00    -0.013 A 
ATOM     19  C   UNK d   0     -23.934  -8.156 -23.063  0.00  0.00     0.067 A 
ATOM     20  N   UNK d   0     -24.242  -8.310 -24.354  0.00  0.00    -0.248 NA
ATOM     21  C   UNK d   0     -25.078  -8.613 -22.293  0.00  0.00    -0.011 A 
ATOM     22  C   UNK d   0     -25.504  -8.834 -24.483  0.00  0.00     0.066 A 
ATOM     23  C   UNK d   0     -25.939  -9.082 -25.777  0.00  0.00     0.062 C 
ATOM     24  C   UNK d   0     -25.996  -9.005 -23.130  0.00  0.00    -0.020 A 
ATOM     25  C   UNK d   0     -25.212  -8.947 -26.969  0.00  0.00     0.041 A 
ATOM     26  N   UNK d   0     -24.337  -8.020 -27.376  0.00  0.00    -0.355 N 
ATOM     27  C   UNK d   0     -25.360  -9.937 -27.965  0.00  0.00    -0.022 A 
ATOM     28  C   UNK d   0     -23.918  -8.387 -28.598  0.00  0.00     0.042 A 
ATOM     29  H   UNK d   0     -24.036  -7.100 -26.817  0.00  0.00     0.166 HD
ATOM     30  C   UNK d   0     -23.004  -7.789 -29.478  0.00  0.00     0.062 C 
ATOM     31  C   UNK d   0     -24.545  -9.591 -28.999  0.00  0.00    -0.013 A 
ATOM     32  C   UNK d   0     -21.798  -7.178 -29.174  0.00  0.00     0.066 A 
BRANCH   8  33
ATOM     33  C   UNK d   0     -18.537  -5.503 -29.457  0.00  0.00     0.151 C 
BRANCH  33  34
ATOM     34  C   UNK d   0     -17.359  -6.335 -29.152  0.00  0.00     0.143 C 
ATOM     35  O   UNK d   0     -17.191  -7.429 -29.711  0.00  0.00    -0.650 OA
BRANCH  34  36
ATOM     36  O   UNK d   0     -16.437  -5.890 -28.234  0.00  0.00    -0.776 OA
ATOM     37  H   UNK d   0     -16.611  -5.966 -27.222  0.00  0.00     0.167 HD
ENDBRANCH  34  36
ENDBRANCH  33  34
ENDBRANCH   8  33
BRANCH  31  38
ATOM     38  C   UNK d   0     -24.360 -10.362 -30.285  0.00  0.00     0.151 C 
BRANCH  38  39
ATOM     39  C   UNK d   0     -23.054 -10.978 -30.387  0.00  0.00     0.143 C 
ATOM     40  O   UNK d   0     -22.351 -11.219 -29.390  0.00  0.00    -0.650 OA
BRANCH  39  41
ATOM     41  O   UNK d   0     -22.553 -11.319 -31.643  0.00  0.00    -0.776 OA
ATOM     42  H   UNK d   0     -21.854 -12.068 -31.674  0.00  0.00     0.167 HD
ENDBRANCH  39  41
ENDBRANCH  38  39
ENDBRANCH  31  38
BRANCH  27  43
ATOM     43  C   UNK d   0     -26.230 -11.169 -27.970  0.00  0.00     0.052 C 
BRANCH  43  44
ATOM     44  C   UNK d   0     -25.488 -12.415 -28.329  0.00  0.00     0.115 C 
BRANCH  44  45
ATOM     45  C   UNK d   0     -26.347 -13.555 -27.915  0.00  0.00     0.139 C 
ATOM     46  O   UNK d   0     -27.580 -13.353 -27.792  0.00  0.00    -0.650 OA
BRANCH  45  47
ATOM     47  O   UNK d   0     -25.847 -14.816 -27.668  0.00  0.00    -0.776 OA
ATOM     48  H   UNK d   0     -25.869 -15.574 -28.368  0.00  0.00     0.167 HD
ENDBRANCH  45  47
ENDBRANCH  44  45
ENDBRANCH  43  44
ENDBRANCH  27  43
BRANCH  24  49
ATOM     49  C   UNK d   0     -27.305  -9.579 -22.777  0.00  0.00     0.052 C 
BRANCH  49  50
ATOM     50  C   UNK d   0     -28.314  -8.483 -22.549  0.00  0.00     0.115 C 
BRANCH  50  51
ATOM     51  C   UNK d   0     -29.112  -8.556 -21.333  0.00  0.00     0.139 C 
ATOM     52  O   UNK d   0     -28.620  -8.850 -20.218  0.00  0.00    -0.650 OA
BRANCH  51  53
ATOM     53  O   UNK d   0     -30.473  -8.295 -21.387  0.00  0.00    -0.776 OA
ATOM     54  H   UNK d   0     -30.993  -8.646 -22.173  0.00  0.00     0.167 HD
ENDBRANCH  51  53
ENDBRANCH  50  51
ENDBRANCH  49  50
ENDBRANCH  24  49
BRANCH  21  55
ATOM     55  C   UNK d   0     -25.134  -8.616 -20.801  0.00  0.00     0.151 C 
BRANCH  55  56
ATOM     56  C   UNK d   0     -25.174  -7.253 -20.249  0.00  0.00     0.143 C 
ATOM     57  O   UNK d   0     -24.175  -6.697 -19.751  0.00  0.00    -0.650 OA
BRANCH  56  58
ATOM     58  O   UNK d   0     -26.388  -6.570 -20.292  0.00  0.00    -0.776 OA
ATOM     59  H   UNK d   0     -27.139  -6.978 -19.707  0.00  0.00     0.167 HD
ENDBRANCH  56  58
ENDBRANCH  55  56
ENDBRANCH  21  55
BRANCH  18  60
ATOM     60  C   UNK d   0     -21.306  -5.038 -21.968  0.00  0.00     0.151 C 
BRANCH  60  61
ATOM     61  C   UNK d   0     -22.470  -4.163 -22.179  0.00  0.00     0.143 C 
ATOM     62  O   UNK d   0     -22.612  -3.318 -23.063  0.00  0.00    -0.650 OA
BRANCH  61  63
ATOM     63  O   UNK d   0     -23.526  -4.332 -21.252  0.00  0.00    -0.776 OA
ATOM     64  H   UNK d   0     -23.469  -5.017 -20.520  0.00  0.00     0.167 HD
ENDBRANCH  61  63
ENDBRANCH  60  61
ENDBRANCH  18  60
BRANCH  14  65
ATOM     65  C   UNK d   0     -19.371  -4.314 -24.190  0.00  0.00     0.052 C 
BRANCH  65  66
ATOM     66  C   UNK d   0     -17.970  -4.712 -23.886  0.00  0.00     0.115 C 
BRANCH  66  67
ATOM     67  C   UNK d   0     -16.988  -3.702 -23.605  0.00  0.00     0.139 C 
ATOM     68  O   UNK d   0     -17.207  -2.503 -24.014  0.00  0.00    -0.650 OA
BRANCH  67  69
ATOM     69  O   UNK d   0     -15.783  -3.852 -22.920  0.00  0.00    -0.776 OA
ATOM     70  H   UNK d   0     -15.297  -4.749 -23.059  0.00  0.00     0.167 HD
ENDBRANCH  67  69
ENDBRANCH  66  67
ENDBRANCH  65  66
ENDBRANCH  14  65
ENDBRANCH   6   7
ENDBRANCH   5   6
ENDBRANCH   2   5
TORSDOF 28
ENDMDL
MODEL 7
REMARK VINA RESULT:      -9.1      1.741      2.087
REMARK  28 active torsions:
REMARK  status: ('A' for Active; 'I' for Inactive)
REMARK    1  A    between atoms: C_2  and  O_3 
REMARK    2  A    between atoms: C_2  and  C_4 
REMARK    3  A    between atoms: C_4  and  C_5 
REMARK    4  A    between atoms: C_5  and  C_6 
REMARK    5  A    between atoms: C_7  and  C_8 
REMARK    6  A    between atoms: C_8  and  C_9 
REMARK    7  A    between atoms: C_9  and  O_11 
REMARK    8  A    between atoms: C_28  and  C_29 
REMARK    9  A    between atoms: C_29  and  C_30 
REMARK   10  A    between atoms: C_30  and  O_32 
REMARK   11  A    between atoms: C_33  and  C_34 
REMARK   12  A    between atoms: C_34  and  C_35 
REMARK   13  A    between atoms: C_35  and  C_36 
REMARK   14  A    between atoms: C_36  and  O_38 
REMARK   15  A    between atoms: C_39  and  C_40 
REMARK   16  A    between atoms: C_40  and  C_41 
REMARK   17  A    between atoms: C_41  and  C_42 
REMARK   18  A    between atoms: C_42  and  O_44 
REMARK   19  A    between atoms: C_45  and  C_46 
REMARK   20  A    between atoms: C_46  and  C_47 
REMARK   21  A    between atoms: C_47  and  O_49 
REMARK   22  A    between atoms: C_50  and  C_51 
REMARK   23  A    between atoms: C_51  and  C_52 
REMARK   24  A    between atoms: C_52  and  O_54 
REMARK   25  A    between atoms: C_55  and  C_56 
REMARK   26  A    between atoms: C_56  and  C_57 
REMARK   27  A    between atoms: C_57  and  C_58 
REMARK   28  A    between atoms: C_58  and  O_60 
ROOT
ATOM      1  O   UNK d   0     -24.694  -2.879 -22.600  0.00  0.00    -0.650 OA
ATOM      2  C   UNK d   0     -23.492  -2.826 -22.255  0.00  0.00     0.139 C 
ENDROOT
BRANCH   2   3
ATOM      3  O   UNK d   0     -22.569  -2.275 -23.111  0.00  0.00    -0.776 OA
ATOM      4  H   UNK d   0     -21.571  -2.294 -22.893  0.00  0.00     0.167 HD
ENDBRANCH   2   3
BRANCH   2   5
ATOM      5  C   UNK d   0     -23.071  -3.357 -20.928  0.00  0.00     0.115 C 
BRANCH   5   6
ATOM      6  C   UNK d   0     -21.872  -4.252 -21.085  0.00  0.00     0.052 C 
BRANCH   6   7
ATOM      7  C   UNK d   0     -22.061  -5.294 -22.161  0.00  0.00    -0.020 A 
ATOM      8  C   UNK d   0     -22.993  -6.210 -22.230  0.00  0.00    -0.011 A 
ATOM      9  C   UNK d   0     -22.765  -6.986 -23.438  0.00  0.00     0.067 A 
ATOM     10  C   UNK d   0     -23.395  -8.062 -24.083  0.00  0.00     0.062 C 
ATOM     11  N   UNK d   0     -21.671  -6.477 -24.041  0.00  0.00    -0.248 NA
ATOM     12  C   UNK d   0     -23.188  -8.500 -25.396  0.00  0.00     0.041 A 
ATOM     13  N   UNK d   0     -22.057  -8.662 -26.109  0.00  0.00    -0.355 N 
ATOM     14  C   UNK d   0     -24.305  -8.794 -26.199  0.00  0.00    -0.022 A 
ATOM     15  C   UNK d   0     -22.428  -9.043 -27.346  0.00  0.00     0.042 A 
ATOM     16  H   UNK d   0     -21.017  -8.528 -25.739  0.00  0.00     0.166 HD
ATOM     17  C   UNK d   0     -21.649  -9.345 -28.480  0.00  0.00     0.062 C 
ATOM     18  C   UNK d   0     -23.830  -9.136 -27.441  0.00  0.00    -0.013 A 
ATOM     19  C   UNK d   0     -20.572  -8.669 -28.992  0.00  0.00     0.067 A 
ATOM     20  N   UNK d   0     -20.046  -7.705 -28.232  0.00  0.00    -0.248 NA
ATOM     21  C   UNK d   0     -19.803  -8.707 -30.226  0.00  0.00    -0.011 A 
ATOM     22  C   UNK d   0     -18.990  -7.111 -28.878  0.00  0.00     0.066 A 
ATOM     23  C   UNK d   0     -18.324  -6.113 -28.182  0.00  0.00     0.062 C 
ATOM     24  C   UNK d   0     -18.882  -7.790 -30.154  0.00  0.00    -0.020 A 
ATOM     25  C   UNK d   0     -18.539  -5.696 -26.859  0.00  0.00     0.041 A 
ATOM     26  N   UNK d   0     -19.663  -5.521 -26.155  0.00  0.00    -0.355 N 
ATOM     27  C   UNK d   0     -17.417  -5.406 -26.053  0.00  0.00    -0.022 A 
ATOM     28  C   UNK d   0     -19.296  -5.133 -24.924  0.00  0.00     0.042 A 
ATOM     29  H   UNK d   0     -20.709  -5.645 -26.531  0.00  0.00     0.166 HD
ATOM     30  C   UNK d   0     -20.061  -4.819 -23.789  0.00  0.00     0.062 C 
ATOM     31  C   UNK d   0     -17.887  -5.050 -24.826  0.00  0.00    -0.013 A 
ATOM     32  C   UNK d   0     -21.200  -5.456 -23.323  0.00  0.00     0.066 A 
BRANCH   8  33
ATOM     33  C   UNK d   0     -24.084  -6.437 -21.264  0.00  0.00     0.151 C 
BRANCH  33  34
ATOM     34  C   UNK d   0     -23.674  -7.282 -20.128  0.00  0.00     0.143 C 
ATOM     35  O   UNK d   0     -23.913  -6.940 -18.962  0.00  0.00    -0.650 OA
BRANCH  34  36
ATOM     36  O   UNK d   0     -23.017  -8.466 -20.370  0.00  0.00    -0.776 OA
ATOM     37  H   UNK d   0     -21.990  -8.506 -20.421  0.00  0.00     0.167 HD
ENDBRANCH  34  36
ENDBRANCH  33  34
ENDBRANCH   8  33
BRANCH  31  38
ATOM     38  C   UNK d   0     -17.051  -4.665 -23.628  0.00  0.00     0.151 C 
BRANCH  38  39
ATOM     39  C   UNK d   0     -16.540  -3.314 -23.710  0.00  0.00     0.143 C 
ATOM     40  O   UNK d   0     -17.275  -2.337 -23.938  0.00  0.00    -0.650 OA
BRANCH  39  41
ATOM     41  O   UNK d   0     -15.177  -3.083 -23.527  0.00  0.00    -0.776 OA
ATOM     42  H   UNK d   0     -14.555  -3.363 -24.292  0.00  0.00     0.167 HD
ENDBRANCH  39  41
ENDBRANCH  38  39
ENDBRANCH  31  38
BRANCH  27  43
ATOM     43  C   UNK d   0     -15.950  -5.453 -26.399  0.00  0.00     0.052 C 
BRANCH  43  44
ATOM     44  C   UNK d   0     -15.217  -6.563 -25.718  0.00  0.00     0.115 C 
BRANCH  44  45
ATOM     45  C   UNK d   0     -14.007  -5.959 -25.102  0.00  0.00     0.139 C 
ATOM     46  O   UNK d   0     -13.727  -4.769 -25.392  0.00  0.00    -0.650 OA
BRANCH  45  47
ATOM     47  O   UNK d   0     -13.191  -6.644 -24.229  0.00  0.00    -0.776 OA
ATOM     48  H   UNK d   0     -13.042  -7.665 -24.285  0.00  0.00     0.167 HD
ENDBRANCH  45  47
ENDBRANCH  44  45
ENDBRANCH  43  44
ENDBRANCH  27  43
BRANCH  24  49
ATOM     49  C   UNK d   0     -17.856  -7.509 -31.173  0.00  0.00     0.052 C 
BRANCH  49  50
ATOM     50  C   UNK d   0     -18.391  -6.551 -32.206  0.00  0.00     0.115 C 
BRANCH  50  51
ATOM     51  C   UNK d   0     -18.718  -7.100 -33.515  0.00  0.00     0.139 C 
ATOM     52  O   UNK d   0     -19.896  -7.331 -33.876  0.00  0.00    -0.650 OA
BRANCH  51  53
ATOM     53  O   UNK d   0     -17.701  -7.387 -34.413  0.00  0.00    -0.776 OA
ATOM     54  H   UNK d   0     -17.391  -8.339 -34.491  0.00  0.00     0.167 HD
ENDBRANCH  51  53
ENDBRANCH  50  51
ENDBRANCH  49  50
ENDBRANCH  24  49
BRANCH  21  55
ATOM     55  C   UNK d   0     -20.068  -9.660 -31.344  0.00  0.00     0.151 C 
BRANCH  55  56
ATOM     56  C   UNK d   0     -19.127 -10.791 -31.340  0.00  0.00     0.143 C 
ATOM     57  O   UNK d   0     -19.094 -11.638 -30.425  0.00  0.00    -0.650 OA
BRANCH  56  58
ATOM     58  O   UNK d   0     -18.243 -10.904 -32.411  0.00  0.00    -0.776 OA
ATOM     59  H   UNK d   0     -18.326 -10.159 -33.126  0.00  0.00     0.167 HD
ENDBRANCH  56  58
ENDBRANCH  55  56
ENDBRANCH  21  55
BRANCH  18  60
ATOM     60  C   UNK d   0     -24.690  -9.519 -28.620  0.00  0.00     0.151 C 
BRANCH  60  61
ATOM     61  C   UNK d   0     -24.867 -10.976 -28.534  0.00  0.00     0.143 C 
ATOM     62  O   UNK d   0     -24.014 -11.841 -28.737  0.00  0.00    -0.650 OA
BRANCH  61  63
ATOM     63  O   UNK d   0     -26.168 -11.405 -28.177  0.00  0.00    -0.776 OA
ATOM     64  H   UNK d   0     -26.413 -12.380 -28.183  0.00  0.00     0.167 HD
ENDBRANCH  61  63
ENDBRANCH  60  61
ENDBRANCH  18  60
BRANCH  14  65
ATOM     65  C   UNK d   0     -25.766  -8.870 -25.858  0.00  0.00     0.052 C 
BRANCH  65  66
ATOM     66  C   UNK d   0     -26.014  -9.059 -24.403  0.00  0.00     0.115 C 
BRANCH  66  67
ATOM     67  C   UNK d   0     -27.023  -8.276 -23.746  0.00  0.00     0.139 C 
ATOM     68  O   UNK d   0     -27.220  -8.460 -22.488  0.00  0.00    -0.650 OA
BRANCH  67  69
ATOM     69  O   UNK d   0     -27.851  -7.305 -24.308  0.00  0.00    -0.776 OA
ATOM     70  H   UNK d   0     -27.500  -6.337 -24.265  0.00  0.00     0.167 HD
ENDBRANCH  67  69
ENDBRANCH  66  67
ENDBRANCH  65  66
ENDBRANCH  14  65
ENDBRANCH   6   7
ENDBRANCH   5   6
ENDBRANCH   2   5
TORSDOF 28
ENDMDL
MODEL 8
REMARK VINA RESULT:      -9.1     30.342     33.989
REMARK  28 active torsions:
REMARK  status: ('A' for Active; 'I' for Inactive)
REMARK    1  A    between atoms: C_2  and  O_3 
REMARK    2  A    between atoms: C_2  and  C_4 
REMARK    3  A    between atoms: C_4  and  C_5 
REMARK    4  A    between atoms: C_5  and  C_6 
REMARK    5  A    between atoms: C_7  and  C_8 
REMARK    6  A    between atoms: C_8  and  C_9 
REMARK    7  A    between atoms: C_9  and  O_11 
REMARK    8  A    between atoms: C_28  and  C_29 
REMARK    9  A    between atoms: C_29  and  C_30 
REMARK   10  A    between atoms: C_30  and  O_32 
REMARK   11  A    between atoms: C_33  and  C_34 
REMARK   12  A    between atoms: C_34  and  C_35 
REMARK   13  A    between atoms: C_35  and  C_36 
REMARK   14  A    between atoms: C_36  and  O_38 
REMARK   15  A    between atoms: C_39  and  C_40 
REMARK   16  A    between atoms: C_40  and  C_41 
REMARK   17  A    between atoms: C_41  and  C_42 
REMARK   18  A    between atoms: C_42  and  O_44 
REMARK   19  A    between atoms: C_45  and  C_46 
REMARK   20  A    between atoms: C_46  and  C_47 
REMARK   21  A    between atoms: C_47  and  O_49 
REMARK   22  A    between atoms: C_50  and  C_51 
REMARK   23  A    between atoms: C_51  and  C_52 
REMARK   24  A    between atoms: C_52  and  O_54 
REMARK   25  A    between atoms: C_55  and  C_56 
REMARK   26  A    between atoms: C_56  and  C_57 
REMARK   27  A    between atoms: C_57  and  C_58 
REMARK   28  A    between atoms: C_58  and  O_60 
ROOT
ATOM      1  O   UNK d   0      -1.211 -21.906  -9.305  0.00  0.00    -0.650 OA
ATOM      2  C   UNK d   0      -2.400 -22.054  -9.665  0.00  0.00     0.139 C 
ENDROOT
BRANCH   2   3
ATOM      3  O   UNK d   0      -2.689 -22.167 -11.003  0.00  0.00    -0.776 OA
ATOM      4  H   UNK d   0      -2.102 -21.718 -11.710  0.00  0.00     0.167 HD
ENDBRANCH   2   3
BRANCH   2   5
ATOM      5  C   UNK d   0      -3.489 -22.106  -8.648  0.00  0.00     0.115 C 
BRANCH   5   6
ATOM      6  C   UNK d   0      -3.876 -23.534  -8.377  0.00  0.00     0.052 C 
BRANCH   6   7
ATOM      7  C   UNK d   0      -4.788 -23.672  -7.182  0.00  0.00    -0.020 A 
ATOM      8  C   UNK d   0      -5.971 -24.230  -7.140  0.00  0.00    -0.011 A 
ATOM      9  C   UNK d   0      -6.469 -24.116  -5.779  0.00  0.00     0.067 A 
ATOM     10  C   UNK d   0      -7.623 -24.515  -5.087  0.00  0.00     0.062 C 
ATOM     11  N   UNK d   0      -5.527 -23.471  -5.060  0.00  0.00    -0.248 NA
ATOM     12  C   UNK d   0      -7.805 -24.562  -3.700  0.00  0.00     0.041 A 
ATOM     13  N   UNK d   0      -7.456 -23.695  -2.731  0.00  0.00    -0.355 N 
ATOM     14  C   UNK d   0      -8.402 -25.701  -3.130  0.00  0.00    -0.022 A 
ATOM     15  C   UNK d   0      -7.808 -24.259  -1.560  0.00  0.00     0.042 A 
ATOM     16  H   UNK d   0      -6.988 -22.696  -2.872  0.00  0.00     0.166 HD
ATOM     17  C   UNK d   0      -7.673 -23.784  -0.240  0.00  0.00     0.062 C 
ATOM     18  C   UNK d   0      -8.404 -25.518  -1.770  0.00  0.00    -0.013 A 
ATOM     19  C   UNK d   0      -6.592 -23.183   0.354  0.00  0.00     0.067 A 
ATOM     20  N   UNK d   0      -5.593 -22.807  -0.449  0.00  0.00    -0.248 NA
ATOM     21  C   UNK d   0      -6.207 -22.832   1.710  0.00  0.00    -0.011 A 
ATOM     22  C   UNK d   0      -4.581 -22.237   0.285  0.00  0.00     0.066 A 
ATOM     23  C   UNK d   0      -3.491 -21.765  -0.431  0.00  0.00     0.062 C 
ATOM     24  C   UNK d   0      -5.027 -22.283   1.664  0.00  0.00    -0.020 A 
ATOM     25  C   UNK d   0      -3.333 -21.716  -1.824  0.00  0.00     0.041 A 
ATOM     26  N   UNK d   0      -3.667 -22.584  -2.787  0.00  0.00    -0.355 N 
ATOM     27  C   UNK d   0      -2.738 -20.570  -2.396  0.00  0.00    -0.022 A 
ATOM     28  C   UNK d   0      -3.309 -22.028  -3.955  0.00  0.00     0.042 A 
ATOM     29  H   UNK d   0      -4.128 -23.592  -2.642  0.00  0.00     0.166 HD
ATOM     30  C   UNK d   0      -3.429 -22.493  -5.274  0.00  0.00     0.062 C 
ATOM     31  C   UNK d   0      -2.720 -20.758  -3.744  0.00  0.00    -0.013 A 
ATOM     32  C   UNK d   0      -4.490 -23.176  -5.846  0.00  0.00     0.066 A 
BRANCH   8  33
ATOM     33  C   UNK d   0      -6.692 -24.861  -8.261  0.00  0.00     0.151 C 
BRANCH  33  34
ATOM     34  C   UNK d   0      -6.983 -26.286  -8.022  0.00  0.00     0.143 C 
ATOM     35  O   UNK d   0      -6.204 -26.994  -7.369  0.00  0.00    -0.650 OA
BRANCH  34  36
ATOM     36  O   UNK d   0      -8.137 -26.834  -8.533  0.00  0.00    -0.776 OA
ATOM     37  H   UNK d   0      -8.106 -27.581  -9.240  0.00  0.00     0.167 HD
ENDBRANCH  34  36
ENDBRANCH  33  34
ENDBRANCH   8  33
BRANCH  31  38
ATOM     38  C   UNK d   0      -2.188 -19.788  -4.772  0.00  0.00     0.151 C 
BRANCH  38  39
ATOM     39  C   UNK d   0      -2.871 -18.512  -4.747  0.00  0.00     0.143 C 
ATOM     40  O   UNK d   0      -2.319 -17.454  -5.098  0.00  0.00    -0.650 OA
BRANCH  39  41
ATOM     41  O   UNK d   0      -4.196 -18.452  -4.317  0.00  0.00    -0.776 OA
ATOM     42  H   UNK d   0      -4.833 -19.168  -4.682  0.00  0.00     0.167 HD
ENDBRANCH  39  41
ENDBRANCH  38  39
ENDBRANCH  31  38
BRANCH  27  43
ATOM     43  C   UNK d   0      -2.199 -19.333  -1.722  0.00  0.00     0.052 C 
BRANCH  43  44
ATOM     44  C   UNK d   0      -0.736 -19.411  -1.428  0.00  0.00     0.115 C 
BRANCH  44  45
ATOM     45  C   UNK d   0      -0.179 -18.057  -1.680  0.00  0.00     0.139 C 
ATOM     46  O   UNK d   0       0.245 -17.399  -0.698  0.00  0.00    -0.650 OA
BRANCH  45  47
ATOM     47  O   UNK d   0      -0.105 -17.502  -2.939  0.00  0.00    -0.776 OA
ATOM     48  H   UNK d   0      -0.259 -16.497  -3.119  0.00  0.00     0.167 HD
ENDBRANCH  45  47
ENDBRANCH  44  45
ENDBRANCH  43  44
ENDBRANCH  27  43
BRANCH  24  49
ATOM     49  C   UNK d   0      -4.275 -21.743   2.809  0.00  0.00     0.052 C 
BRANCH  49  50
ATOM     50  C   UNK d   0      -4.029 -20.267   2.627  0.00  0.00     0.115 C 
BRANCH  50  51
ATOM     51  C   UNK d   0      -2.648 -19.840   2.450  0.00  0.00     0.139 C 
ATOM     52  O   UNK d   0      -1.674 -20.610   2.623  0.00  0.00    -0.650 OA
BRANCH  51  53
ATOM     53  O   UNK d   0      -2.377 -18.532   2.078  0.00  0.00    -0.776 OA
ATOM     54  H   UNK d   0      -1.468 -18.324   1.703  0.00  0.00     0.167 HD
ENDBRANCH  51  53
ENDBRANCH  50  51
ENDBRANCH  49  50
ENDBRANCH  24  49
BRANCH  21  55
ATOM     55  C   UNK d   0      -7.059 -23.078   2.911  0.00  0.00     0.151 C 
BRANCH  55  56
ATOM     56  C   UNK d   0      -7.951 -21.944   3.196  0.00  0.00     0.143 C 
ATOM     57  O   UNK d   0      -8.998 -21.730   2.555  0.00  0.00    -0.650 OA
BRANCH  56  58
ATOM     58  O   UNK d   0      -7.593 -21.082   4.232  0.00  0.00    -0.776 OA
ATOM     59  H   UNK d   0      -7.084 -20.230   3.935  0.00  0.00     0.167 HD
ENDBRANCH  56  58
ENDBRANCH  55  56
ENDBRANCH  21  55
BRANCH  18  60
ATOM     60  C   UNK d   0      -8.945 -26.504  -0.765  0.00  0.00     0.151 C 
BRANCH  60  61
ATOM     61  C   UNK d   0      -7.783 -26.984  -0.003  0.00  0.00     0.143 C 
ATOM     62  O   UNK d   0      -7.573 -26.838   1.201  0.00  0.00    -0.650 OA
BRANCH  61  63
ATOM     63  O   UNK d   0      -6.815 -27.689  -0.760  0.00  0.00    -0.776 OA
ATOM     64  H   UNK d   0      -6.923 -27.813  -1.751  0.00  0.00     0.167 HD
ENDBRANCH  61  63
ENDBRANCH  60  61
ENDBRANCH  18  60
BRANCH  14  65
ATOM     65  C   UNK d   0      -9.052 -26.894  -3.773  0.00  0.00     0.052 C 
BRANCH  65  66
ATOM     66  C   UNK d   0     -10.453 -26.633  -4.198  0.00  0.00     0.115 C 
BRANCH  66  67
ATOM     67  C   UNK d   0     -10.961 -27.248  -5.392  0.00  0.00     0.139 C 
ATOM     68  O   UNK d   0     -12.214 -27.528  -5.453  0.00  0.00    -0.650 OA
BRANCH  67  69
ATOM     69  O   UNK d   0     -10.250 -27.598  -6.540  0.00  0.00    -0.776 OA
ATOM     70  H   UNK d   0     -10.050 -28.602  -6.654  0.00  0.00     0.167 HD
ENDBRANCH  67  69
ENDBRANCH  66  67
ENDBRANCH  65  66
ENDBRANCH  14  65
ENDBRANCH   6   7
ENDBRANCH   5   6
ENDBRANCH   2   5
TORSDOF 28
ENDMDL
MODEL 9
REMARK VINA RESULT:      -8.7     30.240     33.957
REMARK  28 active torsions:
REMARK  status: ('A' for Active; 'I' for Inactive)
REMARK    1  A    between atoms: C_2  and  O_3 
REMARK    2  A    between atoms: C_2  and  C_4 
REMARK    3  A    between atoms: C_4  and  C_5 
REMARK    4  A    between atoms: C_5  and  C_6 
REMARK    5  A    between atoms: C_7  and  C_8 
REMARK    6  A    between atoms: C_8  and  C_9 
REMARK    7  A    between atoms: C_9  and  O_11 
REMARK    8  A    between atoms: C_28  and  C_29 
REMARK    9  A    between atoms: C_29  and  C_30 
REMARK   10  A    between atoms: C_30  and  O_32 
REMARK   11  A    between atoms: C_33  and  C_34 
REMARK   12  A    between atoms: C_34  and  C_35 
REMARK   13  A    between atoms: C_35  and  C_36 
REMARK   14  A    between atoms: C_36  and  O_38 
REMARK   15  A    between atoms: C_39  and  C_40 
REMARK   16  A    between atoms: C_40  and  C_41 
REMARK   17  A    between atoms: C_41  and  C_42 
REMARK   18  A    between atoms: C_42  and  O_44 
REMARK   19  A    between atoms: C_45  and  C_46 
REMARK   20  A    between atoms: C_46  and  C_47 
REMARK   21  A    between atoms: C_47  and  O_49 
REMARK   22  A    between atoms: C_50  and  C_51 
REMARK   23  A    between atoms: C_51  and  C_52 
REMARK   24  A    between atoms: C_52  and  O_54 
REMARK   25  A    between atoms: C_55  and  C_56 
REMARK   26  A    between atoms: C_56  and  C_57 
REMARK   27  A    between atoms: C_57  and  C_58 
REMARK   28  A    between atoms: C_58  and  O_60 
ROOT
ATOM      1  O   UNK d   0      -1.268 -21.841  -9.114  0.00  0.00    -0.650 OA
ATOM      2  C   UNK d   0      -2.468 -22.122  -9.327  0.00  0.00     0.139 C 
ENDROOT
BRANCH   2   3
ATOM      3  O   UNK d   0      -2.881 -22.389 -10.610  0.00  0.00    -0.776 OA
ATOM      4  H   UNK d   0      -2.707 -21.727 -11.369  0.00  0.00     0.167 HD
ENDBRANCH   2   3
BRANCH   2   5
ATOM      5  C   UNK d   0      -3.439 -22.163  -8.196  0.00  0.00     0.115 C 
BRANCH   5   6
ATOM      6  C   UNK d   0      -4.367 -23.337  -8.354  0.00  0.00     0.052 C 
BRANCH   6   7
ATOM      7  C   UNK d   0      -5.207 -23.582  -7.123  0.00  0.00    -0.020 A 
ATOM      8  C   UNK d   0      -6.294 -24.304  -7.030  0.00  0.00    -0.011 A 
ATOM      9  C   UNK d   0      -6.756 -24.239  -5.653  0.00  0.00     0.067 A 
ATOM     10  C   UNK d   0      -7.815 -24.787  -4.913  0.00  0.00     0.062 C 
ATOM     11  N   UNK d   0      -5.893 -23.450  -4.979  0.00  0.00    -0.248 NA
ATOM     12  C   UNK d   0      -7.940 -24.833  -3.520  0.00  0.00     0.041 A 
ATOM     13  N   UNK d   0      -7.686 -23.907  -2.576  0.00  0.00    -0.355 N 
ATOM     14  C   UNK d   0      -8.344 -26.036  -2.913  0.00  0.00    -0.022 A 
ATOM     15  C   UNK d   0      -7.912 -24.493  -1.385  0.00  0.00     0.042 A 
ATOM     16  H   UNK d   0      -7.373 -22.854  -2.749  0.00  0.00     0.166 HD
ATOM     17  C   UNK d   0      -7.801 -23.978  -0.078  0.00  0.00     0.062 C 
ATOM     18  C   UNK d   0      -8.325 -25.829  -1.556  0.00  0.00    -0.013 A 
ATOM     19  C   UNK d   0      -6.800 -23.216   0.466  0.00  0.00     0.067 A 
ATOM     20  N   UNK d   0      -5.894 -22.715  -0.378  0.00  0.00    -0.248 NA
ATOM     21  C   UNK d   0      -6.422 -22.788   1.803  0.00  0.00    -0.011 A 
ATOM     22  C   UNK d   0      -4.951 -21.991   0.310  0.00  0.00     0.066 A 
ATOM     23  C   UNK d   0      -3.966 -21.380  -0.452  0.00  0.00     0.062 C 
ATOM     24  C   UNK d   0      -5.337 -22.075   1.705  0.00  0.00    -0.020 A 
ATOM     25  C   UNK d   0      -3.866 -21.335  -1.851  0.00  0.00     0.041 A 
ATOM     26  N   UNK d   0      -4.103 -22.260  -2.789  0.00  0.00    -0.355 N 
ATOM     27  C   UNK d   0      -3.464 -20.126  -2.460  0.00  0.00    -0.022 A 
ATOM     28  C   UNK d   0      -3.870 -21.680  -3.977  0.00  0.00     0.042 A 
ATOM     29  H   UNK d   0      -4.407 -23.321  -2.613  0.00  0.00     0.166 HD
ATOM     30  C   UNK d   0      -3.968 -22.183  -5.284  0.00  0.00     0.062 C 
ATOM     31  C   UNK d   0      -3.465 -20.336  -3.805  0.00  0.00    -0.013 A 
ATOM     32  C   UNK d   0      -4.938 -23.024  -5.807  0.00  0.00     0.066 A 
BRANCH   8  33
ATOM     33  C   UNK d   0      -6.954 -25.054  -8.115  0.00  0.00     0.151 C 
BRANCH  33  34
ATOM     34  C   UNK d   0      -6.885 -26.514  -7.923  0.00  0.00     0.143 C 
ATOM     35  O   UNK d   0      -7.761 -27.259  -8.387  0.00  0.00    -0.650 OA
BRANCH  34  36
ATOM     36  O   UNK d   0      -5.834 -27.054  -7.219  0.00  0.00    -0.776 OA
ATOM     37  H   UNK d   0      -4.917 -26.588  -7.187  0.00  0.00     0.167 HD
ENDBRANCH  34  36
ENDBRANCH  33  34
ENDBRANCH   8  33
BRANCH  31  38
ATOM     38  C   UNK d   0      -3.116 -19.318  -4.866  0.00  0.00     0.151 C 
BRANCH  38  39
ATOM     39  C   UNK d   0      -1.701 -19.286  -5.169  0.00  0.00     0.143 C 
ATOM     40  O   UNK d   0      -1.267 -18.955  -6.286  0.00  0.00    -0.650 OA
BRANCH  39  41
ATOM     41  O   UNK d   0      -0.780 -19.636  -4.182  0.00  0.00    -0.776 OA
ATOM     42  H   UNK d   0       0.165 -19.877  -4.497  0.00  0.00     0.167 HD
ENDBRANCH  39  41
ENDBRANCH  38  39
ENDBRANCH  31  38
BRANCH  27  43
ATOM     43  C   UNK d   0      -3.087 -18.812  -1.824  0.00  0.00     0.052 C 
BRANCH  43  44
ATOM     44  C   UNK d   0      -4.258 -17.918  -1.575  0.00  0.00     0.115 C 
BRANCH  44  45
ATOM     45  C   UNK d   0      -4.204 -17.538  -0.140  0.00  0.00     0.139 C 
ATOM     46  O   UNK d   0      -3.602 -16.479   0.170  0.00  0.00    -0.650 OA
BRANCH  45  47
ATOM     47  O   UNK d   0      -4.788 -18.291   0.855  0.00  0.00    -0.776 OA
ATOM     48  H   UNK d   0      -5.321 -19.155   0.664  0.00  0.00     0.167 HD
ENDBRANCH  45  47
ENDBRANCH  44  45
ENDBRANCH  43  44
ENDBRANCH  27  43
BRANCH  24  49
ATOM     49  C   UNK d   0      -4.632 -21.410   2.814  0.00  0.00     0.052 C 
BRANCH  49  50
ATOM     50  C   UNK d   0      -3.145 -21.633   2.698  0.00  0.00     0.115 C 
BRANCH  50  51
ATOM     51  C   UNK d   0      -2.282 -20.480   2.916  0.00  0.00     0.139 C 
ATOM     52  O   UNK d   0      -2.366 -19.433   2.233  0.00  0.00    -0.650 OA
BRANCH  51  53
ATOM     53  O   UNK d   0      -1.319 -20.523   3.913  0.00  0.00    -0.776 OA
ATOM     54  H   UNK d   0      -1.585 -20.248   4.843  0.00  0.00     0.167 HD
ENDBRANCH  51  53
ENDBRANCH  50  51
ENDBRANCH  49  50
ENDBRANCH  24  49
BRANCH  21  55
ATOM     55  C   UNK d   0      -7.187 -23.132   3.037  0.00  0.00     0.151 C 
BRANCH  55  56
ATOM     56  C   UNK d   0      -8.270 -22.172   3.301  0.00  0.00     0.143 C 
ATOM     57  O   UNK d   0      -9.388 -22.248   2.753  0.00  0.00    -0.650 OA
BRANCH  56  58
ATOM     58  O   UNK d   0      -8.018 -21.140   4.203  0.00  0.00    -0.776 OA
ATOM     59  H   UNK d   0      -8.113 -20.185   3.812  0.00  0.00     0.167 HD
ENDBRANCH  56  58
ENDBRANCH  55  56
ENDBRANCH  21  55
BRANCH  18  60
ATOM     60  C   UNK d   0      -8.683 -26.864  -0.519  0.00  0.00     0.151 C 
BRANCH  60  61
ATOM     61  C   UNK d   0     -10.143 -26.789  -0.360  0.00  0.00     0.143 C 
ATOM     62  O   UNK d   0     -10.847 -25.782  -0.437  0.00  0.00    -0.650 OA
BRANCH  61  63
ATOM     63  O   UNK d   0     -10.784 -28.022  -0.091  0.00  0.00    -0.776 OA
ATOM     64  H   UNK d   0     -10.279 -28.890  -0.137  0.00  0.00     0.167 HD
ENDBRANCH  61  63
ENDBRANCH  60  61
ENDBRANCH  18  60
BRANCH  14  65
ATOM     65  C   UNK d   0      -8.836 -27.322  -3.514  0.00  0.00     0.052 C 
BRANCH  65  66
ATOM     66  C   UNK d   0     -10.283 -27.286  -3.860  0.00  0.00     0.115 C 
BRANCH  66  67
ATOM     67  C   UNK d   0     -10.701 -27.568  -5.204  0.00  0.00     0.139 C 
ATOM     68  O   UNK d   0     -11.953 -27.752  -5.431  0.00  0.00    -0.650 OA
BRANCH  67  69
ATOM     69  O   UNK d   0      -9.902 -27.672  -6.342  0.00  0.00    -0.776 OA
ATOM     70  H   UNK d   0      -9.579 -26.781  -6.746  0.00  0.00     0.167 HD
ENDBRANCH  67  69
ENDBRANCH  66  67
ENDBRANCH  65  66
ENDBRANCH  14  65
ENDBRANCH   6   7
ENDBRANCH   5   6
ENDBRANCH   2   5
TORSDOF 28
ENDMDL
MODEL 10
REMARK VINA RESULT:      -8.6     30.368     34.252
REMARK  28 active torsions:
REMARK  status: ('A' for Active; 'I' for Inactive)
REMARK    1  A    between atoms: C_2  and  O_3 
REMARK    2  A    between atoms: C_2  and  C_4 
REMARK    3  A    between atoms: C_4  and  C_5 
REMARK    4  A    between atoms: C_5  and  C_6 
REMARK    5  A    between atoms: C_7  and  C_8 
REMARK    6  A    between atoms: C_8  and  C_9 
REMARK    7  A    between atoms: C_9  and  O_11 
REMARK    8  A    between atoms: C_28  and  C_29 
REMARK    9  A    between atoms: C_29  and  C_30 
REMARK   10  A    between atoms: C_30  and  O_32 
REMARK   11  A    between atoms: C_33  and  C_34 
REMARK   12  A    between atoms: C_34  and  C_35 
REMARK   13  A    between atoms: C_35  and  C_36 
REMARK   14  A    between atoms: C_36  and  O_38 
REMARK   15  A    between atoms: C_39  and  C_40 
REMARK   16  A    between atoms: C_40  and  C_41 
REMARK   17  A    between atoms: C_41  and  C_42 
REMARK   18  A    between atoms: C_42  and  O_44 
REMARK   19  A    between atoms: C_45  and  C_46 
REMARK   20  A    between atoms: C_46  and  C_47 
REMARK   21  A    between atoms: C_47  and  O_49 
REMARK   22  A    between atoms: C_50  and  C_51 
REMARK   23  A    between atoms: C_51  and  C_52 
REMARK   24  A    between atoms: C_52  and  O_54 
REMARK   25  A    between atoms: C_55  and  C_56 
REMARK   26  A    between atoms: C_56  and  C_57 
REMARK   27  A    between atoms: C_57  and  C_58 
REMARK   28  A    between atoms: C_58  and  O_60 
ROOT
ATOM      1  O   UNK d   0      -2.344 -17.269  -7.148  0.00  0.00    -0.650 OA
ATOM      2  C   UNK d   0      -1.928 -18.202  -6.426  0.00  0.00     0.139 C 
ENDROOT
BRANCH   2   3
ATOM      3  O   UNK d   0      -1.645 -19.420  -6.995  0.00  0.00    -0.776 OA
ATOM      4  H   UNK d   0      -0.875 -19.525  -7.659  0.00  0.00     0.167 HD
ENDBRANCH   2   3
BRANCH   2   5
ATOM      5  C   UNK d   0      -1.745 -17.990  -4.962  0.00  0.00     0.115 C 
BRANCH   5   6
ATOM      6  C   UNK d   0      -0.964 -19.131  -4.367  0.00  0.00     0.052 C 
BRANCH   6   7
ATOM      7  C   UNK d   0      -1.712 -19.832  -3.259  0.00  0.00    -0.020 A 
ATOM      8  C   UNK d   0      -1.437 -19.823  -1.980  0.00  0.00    -0.011 A 
ATOM      9  C   UNK d   0      -2.428 -20.646  -1.306  0.00  0.00     0.067 A 
ATOM     10  C   UNK d   0      -2.702 -21.019   0.019  0.00  0.00     0.062 C 
ATOM     11  N   UNK d   0      -3.264 -21.121  -2.252  0.00  0.00    -0.248 NA
ATOM     12  C   UNK d   0      -3.876 -21.600   0.510  0.00  0.00     0.041 A 
ATOM     13  N   UNK d   0      -4.653 -22.582   0.014  0.00  0.00    -0.355 N 
ATOM     14  C   UNK d   0      -4.442 -21.095   1.695  0.00  0.00    -0.022 A 
ATOM     15  C   UNK d   0      -5.702 -22.707   0.850  0.00  0.00     0.042 A 
ATOM     16  H   UNK d   0      -4.455 -23.187  -0.898  0.00  0.00     0.166 HD
ATOM     17  C   UNK d   0      -6.807 -23.580   0.804  0.00  0.00     0.062 C 
ATOM     18  C   UNK d   0      -5.604 -21.791   1.916  0.00  0.00    -0.013 A 
ATOM     19  C   UNK d   0      -7.596 -23.917  -0.265  0.00  0.00     0.067 A 
ATOM     20  N   UNK d   0      -7.171 -23.539  -1.473  0.00  0.00    -0.248 NA
ATOM     21  C   UNK d   0      -8.862 -24.607  -0.454  0.00  0.00    -0.011 A 
ATOM     22  C   UNK d   0      -8.067 -23.930  -2.438  0.00  0.00     0.066 A 
ATOM     23  C   UNK d   0      -7.729 -23.633  -3.750  0.00  0.00     0.062 C 
ATOM     24  C   UNK d   0      -9.133 -24.608  -1.727  0.00  0.00    -0.020 A 
ATOM     25  C   UNK d   0      -6.538 -23.060  -4.223  0.00  0.00     0.041 A 
ATOM     26  N   UNK d   0      -5.774 -22.075  -3.739  0.00  0.00    -0.355 N 
ATOM     27  C   UNK d   0      -5.969 -23.571  -5.410  0.00  0.00    -0.022 A 
ATOM     28  C   UNK d   0      -4.732 -21.942  -4.575  0.00  0.00     0.042 A 
ATOM     29  H   UNK d   0      -5.980 -21.460  -2.828  0.00  0.00     0.166 HD
ATOM     30  C   UNK d   0      -3.631 -21.071  -4.547  0.00  0.00     0.062 C 
ATOM     31  C   UNK d   0      -4.826 -22.869  -5.640  0.00  0.00    -0.013 A 
ATOM     32  C   UNK d   0      -2.889 -20.668  -3.449  0.00  0.00     0.066 A 
BRANCH   8  33
ATOM     33  C   UNK d   0      -0.324 -19.117  -1.319  0.00  0.00     0.151 C 
BRANCH  33  34
ATOM     34  C   UNK d   0       0.916 -19.913  -1.285  0.00  0.00     0.143 C 
ATOM     35  O   UNK d   0       1.893 -19.541  -0.619  0.00  0.00    -0.650 OA
BRANCH  34  36
ATOM     36  O   UNK d   0       0.987 -21.084  -2.003  0.00  0.00    -0.776 OA
ATOM     37  H   UNK d   0       0.451 -21.211  -2.873  0.00  0.00     0.167 HD
ENDBRANCH  34  36
ENDBRANCH  33  34
ENDBRANCH   8  33
BRANCH  31  38
ATOM     38  C   UNK d   0      -3.871 -23.074  -6.793  0.00  0.00     0.151 C 
BRANCH  38  39
ATOM     39  C   UNK d   0      -2.882 -24.097  -6.528  0.00  0.00     0.143 C 
ATOM     40  O   UNK d   0      -2.591 -24.973  -7.361  0.00  0.00    -0.650 OA
BRANCH  39  41
ATOM     41  O   UNK d   0      -2.223 -24.113  -5.299  0.00  0.00    -0.776 OA
ATOM     42  H   UNK d   0      -2.739 -24.502  -4.504  0.00  0.00     0.167 HD
ENDBRANCH  39  41
ENDBRANCH  38  39
ENDBRANCH  31  38
BRANCH  27  43
ATOM     43  C   UNK d   0      -6.463 -24.674  -6.313  0.00  0.00     0.052 C 
BRANCH  43  44
ATOM     44  C   UNK d   0      -7.488 -24.215  -7.300  0.00  0.00     0.115 C 
BRANCH  44  45
ATOM     45  C   UNK d   0      -6.927 -24.483  -8.649  0.00  0.00     0.139 C 
ATOM     46  O   UNK d   0      -7.276 -25.537  -9.237  0.00  0.00    -0.650 OA
BRANCH  45  47
ATOM     47  O   UNK d   0      -6.051 -23.626  -9.279  0.00  0.00    -0.776 OA
ATOM     48  H   UNK d   0      -6.117 -23.395 -10.283  0.00  0.00     0.167 HD
ENDBRANCH  45  47
ENDBRANCH  44  45
ENDBRANCH  43  44
ENDBRANCH  27  43
BRANCH  24  49
ATOM     49  C   UNK d   0     -10.304 -25.235  -2.365  0.00  0.00     0.052 C 
BRANCH  49  50
ATOM     50  C   UNK d   0     -10.042 -26.697  -2.618  0.00  0.00     0.115 C 
BRANCH  50  51
ATOM     51  C   UNK d   0      -8.748 -27.052  -3.185  0.00  0.00     0.139 C 
ATOM     52  O   UNK d   0      -8.526 -27.048  -4.419  0.00  0.00    -0.650 OA
BRANCH  51  53
ATOM     53  O   UNK d   0      -7.707 -27.415  -2.345  0.00  0.00    -0.776 OA
ATOM     54  H   UNK d   0      -7.360 -28.357  -2.397  0.00  0.00     0.167 HD
ENDBRANCH  51  53
ENDBRANCH  50  51
ENDBRANCH  49  50
ENDBRANCH  24  49
BRANCH  21  55
ATOM     55  C   UNK d   0      -9.664 -25.197   0.658  0.00  0.00     0.151 C 
BRANCH  55  56
ATOM     56  C   UNK d   0     -10.559 -24.208   1.278  0.00  0.00     0.143 C 
ATOM     57  O   UNK d   0     -11.597 -23.796   0.723  0.00  0.00    -0.650 OA
BRANCH  56  58
ATOM     58  O   UNK d   0     -10.216 -23.721   2.538  0.00  0.00    -0.776 OA
ATOM     59  H   UNK d   0     -10.056 -22.699   2.582  0.00  0.00     0.167 HD
ENDBRANCH  56  58
ENDBRANCH  55  56
ENDBRANCH  21  55
BRANCH  18  60
ATOM     60  C   UNK d   0      -6.538 -21.568   3.079  0.00  0.00     0.151 C 
BRANCH  60  61
ATOM     61  C   UNK d   0      -7.587 -20.662   2.586  0.00  0.00     0.143 C 
ATOM     62  O   UNK d   0      -7.468 -19.467   2.314  0.00  0.00    -0.650 OA
BRANCH  61  63
ATOM     63  O   UNK d   0      -8.861 -21.254   2.414  0.00  0.00    -0.776 OA
ATOM     64  H   UNK d   0      -9.378 -21.611   3.198  0.00  0.00     0.167 HD
ENDBRANCH  61  63
ENDBRANCH  60  61
ENDBRANCH  18  60
BRANCH  14  65
ATOM     65  C   UNK d   0      -3.922 -20.083   2.676  0.00  0.00     0.052 C 
BRANCH  65  66
ATOM     66  C   UNK d   0      -4.384 -18.700   2.384  0.00  0.00     0.115 C 
BRANCH  66  67
ATOM     67  C   UNK d   0      -3.516 -17.791   1.690  0.00  0.00     0.139 C 
ATOM     68  O   UNK d   0      -4.034 -16.763   1.118  0.00  0.00    -0.650 OA
BRANCH  67  69
ATOM     69  O   UNK d   0      -2.131 -17.876   1.546  0.00  0.00    -0.776 OA
ATOM     70  H   UNK d   0      -1.685 -18.698   1.977  0.00  0.00     0.167 HD
ENDBRANCH  67  69
ENDBRANCH  66  67
ENDBRANCH  65  66
ENDBRANCH  14  65
ENDBRANCH   6   7
ENDBRANCH   5   6
ENDBRANCH   2   5
TORSDOF 28
ENDMDL
MODEL 11
REMARK VINA RESULT:      -8.6     30.277     34.514
REMARK  28 active torsions:
REMARK  status: ('A' for Active; 'I' for Inactive)
REMARK    1  A    between atoms: C_2  and  O_3 
REMARK    2  A    between atoms: C_2  and  C_4 
REMARK    3  A    between atoms: C_4  and  C_5 
REMARK    4  A    between atoms: C_5  and  C_6 
REMARK    5  A    between atoms: C_7  and  C_8 
REMARK    6  A    between atoms: C_8  and  C_9 
REMARK    7  A    between atoms: C_9  and  O_11 
REMARK    8  A    between atoms: C_28  and  C_29 
REMARK    9  A    between atoms: C_29  and  C_30 
REMARK   10  A    between atoms: C_30  and  O_32 
REMARK   11  A    between atoms: C_33  and  C_34 
REMARK   12  A    between atoms: C_34  and  C_35 
REMARK   13  A    between atoms: C_35  and  C_36 
REMARK   14  A    between atoms: C_36  and  O_38 
REMARK   15  A    between atoms: C_39  and  C_40 
REMARK   16  A    between atoms: C_40  and  C_41 
REMARK   17  A    between atoms: C_41  and  C_42 
REMARK   18  A    between atoms: C_42  and  O_44 
REMARK   19  A    between atoms: C_45  and  C_46 
REMARK   20  A    between atoms: C_46  and  C_47 
REMARK   21  A    between atoms: C_47  and  O_49 
REMARK   22  A    between atoms: C_50  and  C_51 
REMARK   23  A    between atoms: C_51  and  C_52 
REMARK   24  A    between atoms: C_52  and  O_54 
REMARK   25  A    between atoms: C_55  and  C_56 
REMARK   26  A    between atoms: C_56  and  C_57 
REMARK   27  A    between atoms: C_57  and  C_58 
REMARK   28  A    between atoms: C_58  and  O_60 
ROOT
ATOM      1  O   UNK d   0      -9.170 -26.683  -8.086  0.00  0.00    -0.650 OA
ATOM      2  C   UNK d   0      -7.972 -26.797  -7.743  0.00  0.00     0.139 C 
ENDROOT
BRANCH   2   3
ATOM      3  O   UNK d   0      -7.643 -27.653  -6.720  0.00  0.00    -0.776 OA
ATOM      4  H   UNK d   0      -8.027 -28.600  -6.681  0.00  0.00     0.167 HD
ENDBRANCH   2   3
BRANCH   2   5
ATOM      5  C   UNK d   0      -6.916 -26.008  -8.438  0.00  0.00     0.115 C 
BRANCH   5   6
ATOM      6  C   UNK d   0      -7.102 -24.540  -8.166  0.00  0.00     0.052 C 
BRANCH   6   7
ATOM      7  C   UNK d   0      -6.185 -24.029  -7.081  0.00  0.00    -0.020 A 
ATOM      8  C   UNK d   0      -4.997 -23.499  -7.225  0.00  0.00    -0.011 A 
ATOM      9  C   UNK d   0      -4.495 -23.167  -5.901  0.00  0.00     0.067 A 
ATOM     10  C   UNK d   0      -3.335 -22.575  -5.377  0.00  0.00     0.062 C 
ATOM     11  N   UNK d   0      -5.441 -23.534  -5.011  0.00  0.00    -0.248 NA
ATOM     12  C   UNK d   0      -3.148 -22.081  -4.082  0.00  0.00     0.041 A 
ATOM     13  N   UNK d   0      -3.501 -22.581  -2.883  0.00  0.00    -0.355 N 
ATOM     14  C   UNK d   0      -2.539 -20.824  -3.915  0.00  0.00    -0.022 A 
ATOM     15  C   UNK d   0      -3.140 -21.670  -1.960  0.00  0.00     0.042 A 
ATOM     16  H   UNK d   0      -3.979 -23.567  -2.691  0.00  0.00     0.166 HD
ATOM     17  C   UNK d   0      -3.275 -21.687  -0.557  0.00  0.00     0.062 C 
ATOM     18  C   UNK d   0      -2.534 -20.554  -2.569  0.00  0.00    -0.013 A 
ATOM     19  C   UNK d   0      -4.358 -22.052   0.201  0.00  0.00     0.067 A 
ATOM     20  N   UNK d   0      -5.364 -22.659  -0.435  0.00  0.00    -0.248 NA
ATOM     21  C   UNK d   0      -4.742 -21.938   1.598  0.00  0.00    -0.011 A 
ATOM     22  C   UNK d   0      -6.378 -22.949   0.445  0.00  0.00     0.066 A 
ATOM     23  C   UNK d   0      -7.475 -23.618  -0.077  0.00  0.00     0.062 C 
ATOM     24  C   UNK d   0      -5.927 -22.460   1.733  0.00  0.00    -0.020 A 
ATOM     25  C   UNK d   0      -7.638 -24.118  -1.379  0.00  0.00     0.041 A 
ATOM     26  N   UNK d   0      -7.300 -23.614  -2.572  0.00  0.00    -0.355 N 
ATOM     27  C   UNK d   0      -8.245 -25.382  -1.545  0.00  0.00    -0.022 A 
ATOM     28  C   UNK d   0      -7.667 -24.517  -3.495  0.00  0.00     0.042 A 
ATOM     29  H   UNK d   0      -6.830 -22.618  -2.764  0.00  0.00     0.166 HD
ATOM     30  C   UNK d   0      -7.548 -24.508  -4.893  0.00  0.00     0.062 C 
ATOM     31  C   UNK d   0      -8.267 -25.643  -2.881  0.00  0.00    -0.013 A 
ATOM     32  C   UNK d   0      -6.483 -24.059  -5.657  0.00  0.00     0.066 A 
BRANCH   8  33
ATOM     33  C   UNK d   0      -4.275 -23.275  -8.491  0.00  0.00     0.151 C 
BRANCH  33  34
ATOM     34  C   UNK d   0      -3.184 -22.292  -8.359  0.00  0.00     0.143 C 
ATOM     35  O   UNK d   0      -2.008 -22.661  -8.228  0.00  0.00    -0.650 OA
BRANCH  34  36
ATOM     36  O   UNK d   0      -3.479 -20.949  -8.380  0.00  0.00    -0.776 OA
ATOM     37  H   UNK d   0      -2.777 -20.253  -8.667  0.00  0.00     0.167 HD
ENDBRANCH  34  36
ENDBRANCH  33  34
ENDBRANCH   8  33
BRANCH  31  38
ATOM     38  C   UNK d   0      -8.811 -26.890  -3.537  0.00  0.00     0.151 C 
BRANCH  38  39
ATOM     39  C   UNK d   0     -10.233 -26.814  -3.795  0.00  0.00     0.143 C 
ATOM     40  O   UNK d   0     -10.919 -25.832  -3.460  0.00  0.00    -0.650 OA
BRANCH  39  41
ATOM     41  O   UNK d   0     -10.871 -27.871  -4.444  0.00  0.00    -0.776 OA
ATOM     42  H   UNK d   0     -11.198 -27.697  -5.399  0.00  0.00     0.167 HD
ENDBRANCH  39  41
ENDBRANCH  38  39
ENDBRANCH  31  38
BRANCH  27  43
ATOM     43  C   UNK d   0      -8.793 -26.326  -0.505  0.00  0.00     0.052 C 
BRANCH  43  44
ATOM     44  C   UNK d   0      -7.920 -26.448   0.702  0.00  0.00     0.115 C 
BRANCH  44  45
ATOM     45  C   UNK d   0      -6.646 -27.061   0.244  0.00  0.00     0.139 C 
ATOM     46  O   UNK d   0      -5.579 -26.684   0.788  0.00  0.00    -0.650 OA
BRANCH  45  47
ATOM     47  O   UNK d   0      -6.592 -28.022  -0.742  0.00  0.00    -0.776 OA
ATOM     48  H   UNK d   0      -6.659 -27.798  -1.748  0.00  0.00     0.167 HD
ENDBRANCH  45  47
ENDBRANCH  44  45
ENDBRANCH  43  44
ENDBRANCH  27  43
BRANCH  24  49
ATOM     49  C   UNK d   0      -6.680 -22.590   2.993  0.00  0.00     0.052 C 
BRANCH  49  50
ATOM     50  C   UNK d   0      -7.770 -21.551   3.061  0.00  0.00     0.115 C 
BRANCH  50  51
ATOM     51  C   UNK d   0      -7.367 -20.184   3.362  0.00  0.00     0.139 C 
ATOM     52  O   UNK d   0      -6.675 -19.888   4.364  0.00  0.00    -0.650 OA
BRANCH  51  53
ATOM     53  O   UNK d   0      -7.756 -19.153   2.520  0.00  0.00    -0.776 OA
ATOM     54  H   UNK d   0      -7.669 -19.291   1.528  0.00  0.00     0.167 HD
ENDBRANCH  51  53
ENDBRANCH  50  51
ENDBRANCH  49  50
ENDBRANCH  24  49
BRANCH  21  55
ATOM     55  C   UNK d   0      -3.884 -21.322   2.652  0.00  0.00     0.151 C 
BRANCH  55  56
ATOM     56  C   UNK d   0      -3.583 -19.911   2.364  0.00  0.00     0.143 C 
ATOM     57  O   UNK d   0      -2.420 -19.468   2.295  0.00  0.00    -0.650 OA
BRANCH  56  58
ATOM     58  O   UNK d   0      -4.658 -19.047   2.162  0.00  0.00    -0.776 OA
ATOM     59  H   UNK d   0      -4.465 -18.250   1.529  0.00  0.00     0.167 HD
ENDBRANCH  56  58
ENDBRANCH  55  56
ENDBRANCH  21  55
BRANCH  18  60
ATOM     60  C   UNK d   0      -1.980 -19.299  -1.941  0.00  0.00     0.151 C 
BRANCH  60  61
ATOM     61  C   UNK d   0      -3.147 -18.490  -1.557  0.00  0.00     0.143 C 
ATOM     62  O   UNK d   0      -4.155 -18.275  -2.231  0.00  0.00    -0.650 OA
BRANCH  61  63
ATOM     63  O   UNK d   0      -3.080 -17.909  -0.268  0.00  0.00    -0.776 OA
ATOM     64  H   UNK d   0      -3.351 -16.954  -0.115  0.00  0.00     0.167 HD
ENDBRANCH  61  63
ENDBRANCH  60  61
ENDBRANCH  18  60
BRANCH  14  65
ATOM     65  C   UNK d   0      -1.881 -19.912  -4.911  0.00  0.00     0.052 C 
BRANCH  65  66
ATOM     66  C   UNK d   0      -2.796 -18.861  -5.431  0.00  0.00     0.115 C 
BRANCH  66  67
ATOM     67  C   UNK d   0      -2.340 -17.963  -6.454  0.00  0.00     0.139 C 
ATOM     68  O   UNK d   0      -2.703 -18.179  -7.668  0.00  0.00    -0.650 OA
BRANCH  67  69
ATOM     69  O   UNK d   0      -1.523 -16.843  -6.304  0.00  0.00    -0.776 OA
ATOM     70  H   UNK d   0      -0.688 -16.973  -5.715  0.00  0.00     0.167 HD
ENDBRANCH  67  69
ENDBRANCH  66  67
ENDBRANCH  65  66
ENDBRANCH  14  65
ENDBRANCH   6   7
ENDBRANCH   5   6
ENDBRANCH   2   5
TORSDOF 28
ENDMDL
MODEL 12
REMARK VINA RESULT:      -8.5      1.954      8.665
REMARK  28 active torsions:
REMARK  status: ('A' for Active; 'I' for Inactive)
REMARK    1  A    between atoms: C_2  and  O_3 
REMARK    2  A    between atoms: C_2  and  C_4 
REMARK    3  A    between atoms: C_4  and  C_5 
REMARK    4  A    between atoms: C_5  and  C_6 
REMARK    5  A    between atoms: C_7  and  C_8 
REMARK    6  A    between atoms: C_8  and  C_9 
REMARK    7  A    between atoms: C_9  and  O_11 
REMARK    8  A    between atoms: C_28  and  C_29 
REMARK    9  A    between atoms: C_29  and  C_30 
REMARK   10  A    between atoms: C_30  and  O_32 
REMARK   11  A    between atoms: C_33  and  C_34 
REMARK   12  A    between atoms: C_34  and  C_35 
REMARK   13  A    between atoms: C_35  and  C_36 
REMARK   14  A    between atoms: C_36  and  O_38 
REMARK   15  A    between atoms: C_39  and  C_40 
REMARK   16  A    between atoms: C_40  and  C_41 
REMARK   17  A    between atoms: C_41  and  C_42 
REMARK   18  A    between atoms: C_42  and  O_44 
REMARK   19  A    between atoms: C_45  and  C_46 
REMARK   20  A    between atoms: C_46  and  C_47 
REMARK   21  A    between atoms: C_47  and  O_49 
REMARK   22  A    between atoms: C_50  and  C_51 
REMARK   23  A    between atoms: C_51  and  C_52 
REMARK   24  A    between atoms: C_52  and  O_54 
REMARK   25  A    between atoms: C_55  and  C_56 
REMARK   26  A    between atoms: C_56  and  C_57 
REMARK   27  A    between atoms: C_57  and  C_58 
REMARK   28  A    between atoms: C_58  and  O_60 
ROOT
ATOM      1  O   UNK d   0     -16.648  -8.618 -29.044  0.00  0.00    -0.650 OA
ATOM      2  C   UNK d   0     -17.022  -8.684 -30.236  0.00  0.00     0.139 C 
ENDROOT
BRANCH   2   3
ATOM      3  O   UNK d   0     -17.430  -9.892 -30.749  0.00  0.00    -0.776 OA
ATOM      4  H   UNK d   0     -18.097  -9.939 -31.521  0.00  0.00     0.167 HD
ENDBRANCH   2   3
BRANCH   2   5
ATOM      5  C   UNK d   0     -17.022  -7.462 -31.089  0.00  0.00     0.115 C 
BRANCH   5   6
ATOM      6  C   UNK d   0     -17.761  -6.348 -30.397  0.00  0.00     0.052 C 
BRANCH   6   7
ATOM      7  C   UNK d   0     -19.188  -6.715 -30.067  0.00  0.00    -0.020 A 
ATOM      8  C   UNK d   0     -20.152  -7.005 -30.904  0.00  0.00    -0.011 A 
ATOM      9  C   UNK d   0     -21.348  -7.283 -30.126  0.00  0.00     0.067 A 
ATOM     10  C   UNK d   0     -22.670  -7.662 -30.403  0.00  0.00     0.062 C 
ATOM     11  N   UNK d   0     -21.023  -7.133 -28.825  0.00  0.00    -0.248 NA
ATOM     12  C   UNK d   0     -23.616  -8.158 -29.499  0.00  0.00     0.041 A 
ATOM     13  N   UNK d   0     -23.930  -7.778 -28.246  0.00  0.00    -0.355 N 
ATOM     14  C   UNK d   0     -24.380  -9.283 -29.862  0.00  0.00    -0.022 A 
ATOM     15  C   UNK d   0     -24.867  -8.637 -27.802  0.00  0.00     0.042 A 
ATOM     16  H   UNK d   0     -23.511  -6.907 -27.694  0.00  0.00     0.166 HD
ATOM     17  C   UNK d   0     -25.539  -8.695 -26.565  0.00  0.00     0.062 C 
ATOM     18  C   UNK d   0     -25.174  -9.595 -28.787  0.00  0.00    -0.013 A 
ATOM     19  C   UNK d   0     -25.027  -8.569 -25.298  0.00  0.00     0.067 A 
ATOM     20  N   UNK d   0     -23.766  -8.141 -25.195  0.00  0.00    -0.248 NA
ATOM     21  C   UNK d   0     -25.511  -8.804 -23.948  0.00  0.00    -0.011 A 
ATOM     22  C   UNK d   0     -23.390  -8.080 -23.876  0.00  0.00     0.066 A 
ATOM     23  C   UNK d   0     -22.109  -7.613 -23.621  0.00  0.00     0.062 C 
ATOM     24  C   UNK d   0     -24.547  -8.520 -23.121  0.00  0.00    -0.020 A 
ATOM     25  C   UNK d   0     -21.179  -7.107 -24.542  0.00  0.00     0.041 A 
ATOM     26  N   UNK d   0     -20.857  -7.494 -25.782  0.00  0.00    -0.355 N 
ATOM     27  C   UNK d   0     -20.416  -5.976 -24.179  0.00  0.00    -0.022 A 
ATOM     28  C   UNK d   0     -19.916  -6.645 -26.224  0.00  0.00     0.042 A 
ATOM     29  H   UNK d   0     -21.270  -8.375 -26.332  0.00  0.00     0.166 HD
ATOM     30  C   UNK d   0     -19.233  -6.581 -27.449  0.00  0.00     0.062 C 
ATOM     31  C   UNK d   0     -19.615  -5.676 -25.238  0.00  0.00    -0.013 A 
ATOM     32  C   UNK d   0     -19.737  -6.793 -28.722  0.00  0.00     0.066 A 
BRANCH   8  33
ATOM     33  C   UNK d   0     -20.065  -7.043 -32.375  0.00  0.00     0.151 C 
BRANCH  33  34
ATOM     34  C   UNK d   0     -20.329  -8.383 -32.928  0.00  0.00     0.143 C 
ATOM     35  O   UNK d   0     -21.385  -8.628 -33.528  0.00  0.00    -0.650 OA
BRANCH  34  36
ATOM     36  O   UNK d   0     -19.388  -9.375 -32.773  0.00  0.00    -0.776 OA
ATOM     37  H   UNK d   0     -18.414  -9.154 -32.524  0.00  0.00     0.167 HD
ENDBRANCH  34  36
ENDBRANCH  33  34
ENDBRANCH   8  33
BRANCH  31  38
ATOM     38  C   UNK d   0     -18.632  -4.531 -25.316  0.00  0.00     0.151 C 
BRANCH  38  39
ATOM     39  C   UNK d   0     -17.283  -4.925 -24.971  0.00  0.00     0.143 C 
ATOM     40  O   UNK d   0     -17.032  -5.987 -24.374  0.00  0.00    -0.650 OA
BRANCH  39  41
ATOM     41  O   UNK d   0     -16.216  -4.095 -25.314  0.00  0.00    -0.776 OA
ATOM     42  H   UNK d   0     -16.120  -3.852 -26.305  0.00  0.00     0.167 HD
ENDBRANCH  39  41
ENDBRANCH  38  39
ENDBRANCH  31  38
BRANCH  27  43
ATOM     43  C   UNK d   0     -20.420  -5.190 -22.892  0.00  0.00     0.052 C 
BRANCH  43  44
ATOM     44  C   UNK d   0     -21.668  -4.393 -22.690  0.00  0.00     0.115 C 
BRANCH  44  45
ATOM     45  C   UNK d   0     -22.150  -4.699 -21.317  0.00  0.00     0.139 C 
ATOM     46  O   UNK d   0     -21.809  -5.792 -20.800  0.00  0.00    -0.650 OA
BRANCH  45  47
ATOM     47  O   UNK d   0     -22.943  -3.835 -20.594  0.00  0.00    -0.776 OA
ATOM     48  H   UNK d   0     -23.884  -4.092 -20.252  0.00  0.00     0.167 HD
ENDBRANCH  45  47
ENDBRANCH  44  45
ENDBRANCH  43  44
ENDBRANCH  27  43
BRANCH  24  49
ATOM     49  C   UNK d   0     -24.618  -8.581 -21.651  0.00  0.00     0.052 C 
BRANCH  49  50
ATOM     50  C   UNK d   0     -25.454  -7.446 -21.119  0.00  0.00     0.115 C 
BRANCH  50  51
ATOM     51  C   UNK d   0     -26.366  -7.748 -20.024  0.00  0.00     0.139 C 
ATOM     52  O   UNK d   0     -27.336  -8.532 -20.148  0.00  0.00    -0.650 OA
BRANCH  51  53
ATOM     53  O   UNK d   0     -26.173  -7.153 -18.786  0.00  0.00    -0.776 OA
ATOM     54  H   UNK d   0     -25.256  -6.809 -18.562  0.00  0.00     0.167 HD
ENDBRANCH  51  53
ENDBRANCH  50  51
ENDBRANCH  49  50
ENDBRANCH  24  49
BRANCH  21  55
ATOM     55  C   UNK d   0     -26.887  -9.284 -23.626  0.00  0.00     0.151 C 
BRANCH  55  56
ATOM     56  C   UNK d   0     -27.887  -8.212 -23.747  0.00  0.00     0.143 C 
ATOM     57  O   UNK d   0     -27.874  -7.379 -24.675  0.00  0.00    -0.650 OA
BRANCH  56  58
ATOM     58  O   UNK d   0     -28.884  -8.141 -22.775  0.00  0.00    -0.776 OA
ATOM     59  H   UNK d   0     -29.851  -8.220 -23.136  0.00  0.00     0.167 HD
ENDBRANCH  56  58
ENDBRANCH  55  56
ENDBRANCH  21  55
BRANCH  18  60
ATOM     60  C   UNK d   0     -26.151 -10.744 -28.738  0.00  0.00     0.151 C 
BRANCH  60  61
ATOM     61  C   UNK d   0     -25.335 -11.963 -28.636  0.00  0.00     0.143 C 
ATOM     62  O   UNK d   0     -25.661 -13.104 -28.964  0.00  0.00    -0.650 OA
BRANCH  61  63
ATOM     63  O   UNK d   0     -24.038 -11.777 -28.099  0.00  0.00    -0.776 OA
ATOM     64  H   UNK d   0     -23.345 -11.241 -28.591  0.00  0.00     0.167 HD
ENDBRANCH  61  63
ENDBRANCH  60  61
ENDBRANCH  18  60
BRANCH  14  65
ATOM     65  C   UNK d   0     -24.485 -10.017 -31.169  0.00  0.00     0.052 C 
BRANCH  65  66
ATOM     66  C   UNK d   0     -23.161 -10.373 -31.745  0.00  0.00     0.115 C 
BRANCH  66  67
ATOM     67  C   UNK d   0     -22.252 -11.189 -30.989  0.00  0.00     0.139 C 
ATOM     68  O   UNK d   0     -22.670 -12.319 -30.540  0.00  0.00    -0.650 OA
BRANCH  67  69
ATOM     69  O   UNK d   0     -20.926 -10.910 -30.662  0.00  0.00    -0.776 OA
ATOM     70  H   UNK d   0     -20.760 -10.589 -29.698  0.00  0.00     0.167 HD
ENDBRANCH  67  69
ENDBRANCH  66  67
ENDBRANCH  65  66
ENDBRANCH  14  65
ENDBRANCH   6   7
ENDBRANCH   5   6
ENDBRANCH   2   5
TORSDOF 28
ENDMDL
MODEL 13
REMARK VINA RESULT:      -8.4      2.214      7.795
REMARK  28 active torsions:
REMARK  status: ('A' for Active; 'I' for Inactive)
REMARK    1  A    between atoms: C_2  and  O_3 
REMARK    2  A    between atoms: C_2  and  C_4 
REMARK    3  A    between atoms: C_4  and  C_5 
REMARK    4  A    between atoms: C_5  and  C_6 
REMARK    5  A    between atoms: C_7  and  C_8 
REMARK    6  A    between atoms: C_8  and  C_9 
REMARK    7  A    between atoms: C_9  and  O_11 
REMARK    8  A    between atoms: C_28  and  C_29 
REMARK    9  A    between atoms: C_29  and  C_30 
REMARK   10  A    between atoms: C_30  and  O_32 
REMARK   11  A    between atoms: C_33  and  C_34 
REMARK   12  A    between atoms: C_34  and  C_35 
REMARK   13  A    between atoms: C_35  and  C_36 
REMARK   14  A    between atoms: C_36  and  O_38 
REMARK   15  A    between atoms: C_39  and  C_40 
REMARK   16  A    between atoms: C_40  and  C_41 
REMARK   17  A    between atoms: C_41  and  C_42 
REMARK   18  A    between atoms: C_42  and  O_44 
REMARK   19  A    between atoms: C_45  and  C_46 
REMARK   20  A    between atoms: C_46  and  C_47 
REMARK   21  A    between atoms: C_47  and  O_49 
REMARK   22  A    between atoms: C_50  and  C_51 
REMARK   23  A    between atoms: C_51  and  C_52 
REMARK   24  A    between atoms: C_52  and  O_54 
REMARK   25  A    between atoms: C_55  and  C_56 
REMARK   26  A    between atoms: C_56  and  C_57 
REMARK   27  A    between atoms: C_57  and  C_58 
REMARK   28  A    between atoms: C_58  and  O_60 
ROOT
ATOM      1  O   UNK d   0     -24.591 -13.816 -28.508  0.00  0.00    -0.650 OA
ATOM      2  C   UNK d   0     -24.917 -13.694 -29.710  0.00  0.00     0.139 C 
ENDROOT
BRANCH   2   3
ATOM      3  O   UNK d   0     -24.466 -14.613 -30.626  0.00  0.00    -0.776 OA
ATOM      4  H   UNK d   0     -24.991 -15.469 -30.818  0.00  0.00     0.167 HD
ENDBRANCH   2   3
BRANCH   2   5
ATOM      5  C   UNK d   0     -25.786 -12.562 -30.138  0.00  0.00     0.115 C 
BRANCH   5   6
ATOM      6  C   UNK d   0     -24.941 -11.422 -30.639  0.00  0.00     0.052 C 
BRANCH   6   7
ATOM      7  C   UNK d   0     -24.480 -10.509 -29.528  0.00  0.00    -0.020 A 
ATOM      8  C   UNK d   0     -25.191 -10.035 -28.538  0.00  0.00    -0.011 A 
ATOM      9  C   UNK d   0     -24.323  -9.196 -27.728  0.00  0.00     0.067 A 
ATOM     10  C   UNK d   0     -24.455  -8.438 -26.554  0.00  0.00     0.062 C 
ATOM     11  N   UNK d   0     -23.102  -9.211 -28.302  0.00  0.00    -0.248 NA
ATOM     12  C   UNK d   0     -23.426  -7.915 -25.763  0.00  0.00     0.041 A 
ATOM     13  N   UNK d   0     -22.277  -7.297 -26.099  0.00  0.00    -0.355 N 
ATOM     14  C   UNK d   0     -23.498  -8.064 -24.366  0.00  0.00    -0.022 A 
ATOM     15  C   UNK d   0     -21.615  -7.058 -24.951  0.00  0.00     0.042 A 
ATOM     16  H   UNK d   0     -21.950  -7.019 -27.125  0.00  0.00     0.166 HD
ATOM     17  C   UNK d   0     -20.370  -6.437 -24.728  0.00  0.00     0.062 C 
ATOM     18  C   UNK d   0     -22.349  -7.525 -23.843  0.00  0.00    -0.013 A 
ATOM     19  C   UNK d   0     -19.185  -6.616 -25.395  0.00  0.00     0.067 A 
ATOM     20  N   UNK d   0     -19.231  -7.315 -26.532  0.00  0.00    -0.248 NA
ATOM     21  C   UNK d   0     -17.798  -6.240 -25.180  0.00  0.00    -0.011 A 
ATOM     22  C   UNK d   0     -17.975  -7.423 -27.076  0.00  0.00     0.066 A 
ATOM     23  C   UNK d   0     -17.882  -8.096 -28.286  0.00  0.00     0.062 C 
ATOM     24  C   UNK d   0     -17.094  -6.718 -26.165  0.00  0.00    -0.020 A 
ATOM     25  C   UNK d   0     -18.930  -8.603 -29.070  0.00  0.00     0.041 A 
ATOM     26  N   UNK d   0     -20.065  -9.231 -28.738  0.00  0.00    -0.355 N 
ATOM     27  C   UNK d   0     -18.859  -8.449 -30.472  0.00  0.00    -0.022 A 
ATOM     28  C   UNK d   0     -20.723  -9.478 -29.881  0.00  0.00     0.042 A 
ATOM     29  H   UNK d   0     -20.387  -9.519 -27.707  0.00  0.00     0.166 HD
ATOM     30  C   UNK d   0     -21.957 -10.103 -30.119  0.00  0.00     0.062 C 
ATOM     31  C   UNK d   0     -19.990  -9.000 -30.993  0.00  0.00    -0.013 A 
ATOM     32  C   UNK d   0     -23.130  -9.983 -29.389  0.00  0.00     0.066 A 
BRANCH   8  33
ATOM     33  C   UNK d   0     -26.620 -10.288 -28.273  0.00  0.00     0.151 C 
BRANCH  33  34
ATOM     34  C   UNK d   0     -26.842 -11.084 -27.053  0.00  0.00     0.143 C 
ATOM     35  O   UNK d   0     -27.010 -10.533 -25.956  0.00  0.00    -0.650 OA
BRANCH  34  36
ATOM     36  O   UNK d   0     -26.860 -12.457 -27.136  0.00  0.00    -0.776 OA
ATOM     37  H   UNK d   0     -27.630 -12.953 -27.605  0.00  0.00     0.167 HD
ENDBRANCH  34  36
ENDBRANCH  33  34
ENDBRANCH   8  33
BRANCH  31  38
ATOM     38  C   UNK d   0     -20.360  -9.057 -32.456  0.00  0.00     0.151 C 
BRANCH  38  39
ATOM     39  C   UNK d   0     -21.018  -7.853 -32.917  0.00  0.00     0.143 C 
ATOM     40  O   UNK d   0     -22.105  -7.468 -32.450  0.00  0.00    -0.650 OA
BRANCH  39  41
ATOM     41  O   UNK d   0     -20.423  -7.085 -33.917  0.00  0.00    -0.776 OA
ATOM     42  H   UNK d   0     -20.166  -7.573 -34.781  0.00  0.00     0.167 HD
ENDBRANCH  39  41
ENDBRANCH  38  39
ENDBRANCH  31  38
BRANCH  27  43
ATOM     43  C   UNK d   0     -17.779  -7.815 -31.313  0.00  0.00     0.052 C 
BRANCH  43  44
ATOM     44  C   UNK d   0     -17.037  -8.797 -32.160  0.00  0.00     0.115 C 
BRANCH  44  45
ATOM     45  C   UNK d   0     -17.125  -8.303 -33.558  0.00  0.00     0.139 C 
ATOM     46  O   UNK d   0     -16.789  -9.083 -34.484  0.00  0.00    -0.650 OA
BRANCH  45  47
ATOM     47  O   UNK d   0     -17.562  -7.036 -33.877  0.00  0.00    -0.776 OA
ATOM     48  H   UNK d   0     -17.242  -6.190 -33.378  0.00  0.00     0.167 HD
ENDBRANCH  45  47
ENDBRANCH  44  45
ENDBRANCH  43  44
ENDBRANCH  27  43
BRANCH  24  49
ATOM     49  C   UNK d   0     -15.646  -6.539 -26.366  0.00  0.00     0.052 C 
BRANCH  49  50
ATOM     50  C   UNK d   0     -14.898  -6.850 -25.094  0.00  0.00     0.115 C 
BRANCH  50  51
ATOM     51  C   UNK d   0     -13.906  -5.879 -24.652  0.00  0.00     0.139 C 
ATOM     52  O   UNK d   0     -13.055  -6.137 -23.768  0.00  0.00    -0.650 OA
BRANCH  51  53
ATOM     53  O   UNK d   0     -13.886  -4.613 -25.216  0.00  0.00    -0.776 OA
ATOM     54  H   UNK d   0     -13.088  -4.028 -25.042  0.00  0.00     0.167 HD
ENDBRANCH  51  53
ENDBRANCH  50  51
ENDBRANCH  49  50
ENDBRANCH  24  49
BRANCH  21  55
ATOM     55  C   UNK d   0     -17.321  -5.437 -24.016  0.00  0.00     0.151 C 
BRANCH  55  56
ATOM     56  C   UNK d   0     -17.629  -4.006 -24.169  0.00  0.00     0.143 C 
ATOM     57  O   UNK d   0     -18.637  -3.475 -23.663  0.00  0.00    -0.650 OA
BRANCH  56  58
ATOM     58  O   UNK d   0     -16.745  -3.229 -24.915  0.00  0.00    -0.776 OA
ATOM     59  H   UNK d   0     -15.897  -2.921 -24.404  0.00  0.00     0.167 HD
ENDBRANCH  56  58
ENDBRANCH  55  56
ENDBRANCH  21  55
BRANCH  18  60
ATOM     60  C   UNK d   0     -22.006  -7.478 -22.375  0.00  0.00     0.151 C 
BRANCH  60  61
ATOM     61  C   UNK d   0     -22.434  -6.153 -21.902  0.00  0.00     0.143 C 
ATOM     62  O   UNK d   0     -23.569  -5.817 -21.561  0.00  0.00    -0.650 OA
BRANCH  61  63
ATOM     63  O   UNK d   0     -21.411  -5.176 -21.840  0.00  0.00    -0.776 OA
ATOM     64  H   UNK d   0     -21.612  -4.205 -22.001  0.00  0.00     0.167 HD
ENDBRANCH  61  63
ENDBRANCH  60  61
ENDBRANCH  18  60
BRANCH  14  65
ATOM     65  C   UNK d   0     -24.603  -8.583 -23.491  0.00  0.00     0.052 C 
BRANCH  65  66
ATOM     66  C   UNK d   0     -25.958  -8.285 -24.027  0.00  0.00     0.115 C 
BRANCH  66  67
ATOM     67  C   UNK d   0     -27.088  -8.273 -23.140  0.00  0.00     0.139 C 
ATOM     68  O   UNK d   0     -26.916  -8.649 -21.922  0.00  0.00    -0.650 OA
BRANCH  67  69
ATOM     69  O   UNK d   0     -28.398  -7.894 -23.432  0.00  0.00    -0.776 OA
ATOM     70  H   UNK d   0     -28.666  -7.938 -24.425  0.00  0.00     0.167 HD
ENDBRANCH  67  69
ENDBRANCH  66  67
ENDBRANCH  65  66
ENDBRANCH  14  65
ENDBRANCH   6   7
ENDBRANCH   5   6
ENDBRANCH   2   5
TORSDOF 28
ENDMDL
MODEL 14
REMARK VINA RESULT:      -8.2     30.089     33.840
REMARK  28 active torsions:
REMARK  status: ('A' for Active; 'I' for Inactive)
REMARK    1  A    between atoms: C_2  and  O_3 
REMARK    2  A    between atoms: C_2  and  C_4 
REMARK    3  A    between atoms: C_4  and  C_5 
REMARK    4  A    between atoms: C_5  and  C_6 
REMARK    5  A    between atoms: C_7  and  C_8 
REMARK    6  A    between atoms: C_8  and  C_9 
REMARK    7  A    between atoms: C_9  and  O_11 
REMARK    8  A    between atoms: C_28  and  C_29 
REMARK    9  A    between atoms: C_29  and  C_30 
REMARK   10  A    between atoms: C_30  and  O_32 
REMARK   11  A    between atoms: C_33  and  C_34 
REMARK   12  A    between atoms: C_34  and  C_35 
REMARK   13  A    between atoms: C_35  and  C_36 
REMARK   14  A    between atoms: C_36  and  O_38 
REMARK   15  A    between atoms: C_39  and  C_40 
REMARK   16  A    between atoms: C_40  and  C_41 
REMARK   17  A    between atoms: C_41  and  C_42 
REMARK   18  A    between atoms: C_42  and  O_44 
REMARK   19  A    between atoms: C_45  and  C_46 
REMARK   20  A    between atoms: C_46  and  C_47 
REMARK   21  A    between atoms: C_47  and  O_49 
REMARK   22  A    between atoms: C_50  and  C_51 
REMARK   23  A    between atoms: C_51  and  C_52 
REMARK   24  A    between atoms: C_52  and  O_54 
REMARK   25  A    between atoms: C_55  and  C_56 
REMARK   26  A    between atoms: C_56  and  C_57 
REMARK   27  A    between atoms: C_57  and  C_58 
REMARK   28  A    between atoms: C_58  and  O_60 
ROOT
ATOM      1  O   UNK d   0       0.315 -18.253  -6.122  0.00  0.00    -0.650 OA
ATOM      2  C   UNK d   0      -0.237 -17.803  -5.094  0.00  0.00     0.139 C 
ENDROOT
BRANCH   2   3
ATOM      3  O   UNK d   0      -0.346 -16.443  -4.929  0.00  0.00    -0.776 OA
ATOM      4  H   UNK d   0      -0.224 -15.804  -5.717  0.00  0.00     0.167 HD
ENDBRANCH   2   3
BRANCH   2   5
ATOM      5  C   UNK d   0      -0.769 -18.736  -4.060  0.00  0.00     0.115 C 
BRANCH   5   6
ATOM      6  C   UNK d   0      -2.169 -18.339  -3.677  0.00  0.00     0.052 C 
BRANCH   6   7
ATOM      7  C   UNK d   0      -2.831 -19.349  -2.771  0.00  0.00    -0.020 A 
ATOM      8  C   UNK d   0      -2.712 -19.456  -1.472  0.00  0.00    -0.011 A 
ATOM      9  C   UNK d   0      -3.528 -20.579  -1.041  0.00  0.00     0.067 A 
ATOM     10  C   UNK d   0      -3.843 -21.191   0.182  0.00  0.00     0.062 C 
ATOM     11  N   UNK d   0      -4.104 -21.102  -2.144  0.00  0.00    -0.248 NA
ATOM     12  C   UNK d   0      -4.877 -22.100   0.433  0.00  0.00     0.041 A 
ATOM     13  N   UNK d   0      -5.317 -23.158  -0.273  0.00  0.00    -0.355 N 
ATOM     14  C   UNK d   0      -5.681 -21.918   1.573  0.00  0.00    -0.022 A 
ATOM     15  C   UNK d   0      -6.385 -23.648   0.385  0.00  0.00     0.042 A 
ATOM     16  H   UNK d   0      -4.870 -23.563  -1.208  0.00  0.00     0.166 HD
ATOM     17  C   UNK d   0      -7.217 -24.745   0.086  0.00  0.00     0.062 C 
ATOM     18  C   UNK d   0      -6.644 -22.896   1.547  0.00  0.00    -0.013 A 
ATOM     19  C   UNK d   0      -7.770 -25.106  -1.116  0.00  0.00     0.067 A 
ATOM     20  N   UNK d   0      -7.324 -24.470  -2.202  0.00  0.00    -0.248 NA
ATOM     21  C   UNK d   0      -8.788 -26.045  -1.558  0.00  0.00    -0.011 A 
ATOM     22  C   UNK d   0      -7.977 -24.923  -3.322  0.00  0.00     0.066 A 
ATOM     23  C   UNK d   0      -7.582 -24.371  -4.531  0.00  0.00     0.062 C 
ATOM     24  C   UNK d   0      -8.907 -25.930  -2.849  0.00  0.00    -0.020 A 
ATOM     25  C   UNK d   0      -6.533 -23.469  -4.764  0.00  0.00     0.041 A 
ATOM     26  N   UNK d   0      -6.104 -22.408  -4.070  0.00  0.00    -0.355 N 
ATOM     27  C   UNK d   0      -5.723 -23.654  -5.906  0.00  0.00    -0.022 A 
ATOM     28  C   UNK d   0      -5.045 -21.912  -4.729  0.00  0.00     0.042 A 
ATOM     29  H   UNK d   0      -6.561 -21.996  -3.136  0.00  0.00     0.166 HD
ATOM     30  C   UNK d   0      -4.214 -20.816  -4.448  0.00  0.00     0.062 C 
ATOM     31  C   UNK d   0      -4.779 -22.674  -5.891  0.00  0.00    -0.013 A 
ATOM     32  C   UNK d   0      -3.726 -20.406  -3.217  0.00  0.00     0.066 A 
BRANCH   8  33
ATOM     33  C   UNK d   0      -1.897 -18.605  -0.586  0.00  0.00     0.151 C 
BRANCH  33  34
ATOM     34  C   UNK d   0      -2.666 -17.496   0.007  0.00  0.00     0.143 C 
ATOM     35  O   UNK d   0      -3.681 -17.055  -0.553  0.00  0.00    -0.650 OA
BRANCH  34  36
ATOM     36  O   UNK d   0      -2.250 -16.944   1.196  0.00  0.00    -0.776 OA
ATOM     37  H   UNK d   0      -1.867 -15.990   1.236  0.00  0.00     0.167 HD
ENDBRANCH  34  36
ENDBRANCH  33  34
ENDBRANCH   8  33
BRANCH  31  38
ATOM     38  C   UNK d   0      -3.681 -22.478  -6.911  0.00  0.00     0.151 C 
BRANCH  38  39
ATOM     39  C   UNK d   0      -2.671 -23.513  -6.853  0.00  0.00     0.143 C 
ATOM     40  O   UNK d   0      -2.360 -24.081  -5.791  0.00  0.00    -0.650 OA
BRANCH  39  41
ATOM     41  O   UNK d   0      -2.014 -23.897  -8.022  0.00  0.00    -0.776 OA
ATOM     42  H   UNK d   0      -2.561 -24.431  -8.704  0.00  0.00     0.167 HD
ENDBRANCH  39  41
ENDBRANCH  38  39
ENDBRANCH  31  38
BRANCH  27  43
ATOM     43  C   UNK d   0      -5.815 -24.704  -6.985  0.00  0.00     0.052 C 
BRANCH  43  44
ATOM     44  C   UNK d   0      -6.699 -24.306  -8.122  0.00  0.00     0.115 C 
BRANCH  44  45
ATOM     45  C   UNK d   0      -7.677 -25.410  -8.306  0.00  0.00     0.139 C 
ATOM     46  O   UNK d   0      -8.691 -25.431  -7.566  0.00  0.00    -0.650 OA
BRANCH  45  47
ATOM     47  O   UNK d   0      -7.518 -26.399  -9.252  0.00  0.00    -0.776 OA
ATOM     48  H   UNK d   0      -8.277 -27.047  -9.518  0.00  0.00     0.167 HD
ENDBRANCH  45  47
ENDBRANCH  44  45
ENDBRANCH  43  44
ENDBRANCH  27  43
BRANCH  24  49
ATOM     49  C   UNK d   0      -9.799 -26.722  -3.713  0.00  0.00     0.052 C 
BRANCH  49  50
ATOM     50  C   UNK d   0     -10.652 -25.813  -4.560  0.00  0.00     0.115 C 
BRANCH  50  51
ATOM     51  C   UNK d   0     -11.898 -25.335  -3.975  0.00  0.00     0.139 C 
ATOM     52  O   UNK d   0     -13.012 -25.502  -4.526  0.00  0.00    -0.650 OA
BRANCH  51  53
ATOM     53  O   UNK d   0     -11.873 -24.664  -2.762  0.00  0.00    -0.776 OA
ATOM     54  H   UNK d   0     -12.491 -24.976  -2.033  0.00  0.00     0.167 HD
ENDBRANCH  51  53
ENDBRANCH  50  51
ENDBRANCH  49  50
ENDBRANCH  24  49
BRANCH  21  55
ATOM     55  C   UNK d   0      -9.532 -26.961  -0.644  0.00  0.00     0.151 C 
BRANCH  55  56
ATOM     56  C   UNK d   0     -10.329 -26.224   0.347  0.00  0.00     0.143 C 
ATOM     57  O   UNK d   0     -11.306 -25.515   0.036  0.00  0.00    -0.650 OA
BRANCH  56  58
ATOM     58  O   UNK d   0      -9.962 -26.335   1.688  0.00  0.00    -0.776 OA
ATOM     59  H   UNK d   0      -9.154 -26.957   1.869  0.00  0.00     0.167 HD
ENDBRANCH  56  58
ENDBRANCH  55  56
ENDBRANCH  21  55
BRANCH  18  60
ATOM     60  C   UNK d   0      -7.727 -23.070   2.582  0.00  0.00     0.151 C 
BRANCH  60  61
ATOM     61  C   UNK d   0      -8.907 -22.369   2.053  0.00  0.00     0.143 C 
ATOM     62  O   UNK d   0      -9.716 -22.796   1.229  0.00  0.00    -0.650 OA
BRANCH  61  63
ATOM     63  O   UNK d   0      -9.112 -21.064   2.563  0.00  0.00    -0.776 OA
ATOM     64  H   UNK d   0      -9.219 -20.905   3.550  0.00  0.00     0.167 HD
ENDBRANCH  61  63
ENDBRANCH  60  61
ENDBRANCH  18  60
BRANCH  14  65
ATOM     65  C   UNK d   0      -5.550 -20.961   2.723  0.00  0.00     0.052 C 
BRANCH  65  66
ATOM     66  C   UNK d   0      -5.983 -19.579   2.382  0.00  0.00     0.115 C 
BRANCH  66  67
ATOM     67  C   UNK d   0      -5.038 -18.500   2.452  0.00  0.00     0.139 C 
ATOM     68  O   UNK d   0      -3.815 -18.773   2.738  0.00  0.00    -0.650 OA
BRANCH  67  69
ATOM     69  O   UNK d   0      -5.277 -17.142   2.243  0.00  0.00    -0.776 OA
ATOM     70  H   UNK d   0      -6.227 -16.898   1.928  0.00  0.00     0.167 HD
ENDBRANCH  67  69
ENDBRANCH  66  67
ENDBRANCH  65  66
ENDBRANCH  14  65
ENDBRANCH   6   7
ENDBRANCH   5   6
ENDBRANCH   2   5
TORSDOF 28
ENDMDL
MODEL 15
REMARK VINA RESULT:      -8.2      1.972      9.965
REMARK  28 active torsions:
REMARK  status: ('A' for Active; 'I' for Inactive)
REMARK    1  A    between atoms: C_2  and  O_3 
REMARK    2  A    between atoms: C_2  and  C_4 
REMARK    3  A    between atoms: C_4  and  C_5 
REMARK    4  A    between atoms: C_5  and  C_6 
REMARK    5  A    between atoms: C_7  and  C_8 
REMARK    6  A    between atoms: C_8  and  C_9 
REMARK    7  A    between atoms: C_9  and  O_11 
REMARK    8  A    between atoms: C_28  and  C_29 
REMARK    9  A    between atoms: C_29  and  C_30 
REMARK   10  A    between atoms: C_30  and  O_32 
REMARK   11  A    between atoms: C_33  and  C_34 
REMARK   12  A    between atoms: C_34  and  C_35 
REMARK   13  A    between atoms: C_35  and  C_36 
REMARK   14  A    between atoms: C_36  and  O_38 
REMARK   15  A    between atoms: C_39  and  C_40 
REMARK   16  A    between atoms: C_40  and  C_41 
REMARK   17  A    between atoms: C_41  and  C_42 
REMARK   18  A    between atoms: C_42  and  O_44 
REMARK   19  A    between atoms: C_45  and  C_46 
REMARK   20  A    between atoms: C_46  and  C_47 
REMARK   21  A    between atoms: C_47  and  O_49 
REMARK   22  A    between atoms: C_50  and  C_51 
REMARK   23  A    between atoms: C_51  and  C_52 
REMARK   24  A    between atoms: C_52  and  O_54 
REMARK   25  A    between atoms: C_55  and  C_56 
REMARK   26  A    between atoms: C_56  and  C_57 
REMARK   27  A    between atoms: C_57  and  C_58 
REMARK   28  A    between atoms: C_58  and  O_60 
ROOT
ATOM      1  O   UNK d   0     -19.131  -7.595 -33.934  0.00  0.00    -0.650 OA
ATOM      2  C   UNK d   0     -19.931  -7.156 -33.078  0.00  0.00     0.139 C 
ENDROOT
BRANCH   2   3
ATOM      3  O   UNK d   0     -21.269  -7.448 -33.194  0.00  0.00    -0.776 OA
ATOM      4  H   UNK d   0     -21.887  -6.873 -33.770  0.00  0.00     0.167 HD
ENDBRANCH   2   3
BRANCH   2   5
ATOM      5  C   UNK d   0     -19.434  -6.323 -31.947  0.00  0.00     0.115 C 
BRANCH   5   6
ATOM      6  C   UNK d   0     -18.488  -7.123 -31.092  0.00  0.00     0.052 C 
BRANCH   6   7
ATOM      7  C   UNK d   0     -18.817  -7.032 -29.621  0.00  0.00    -0.020 A 
ATOM      8  C   UNK d   0     -18.096  -6.488 -28.674  0.00  0.00    -0.011 A 
ATOM      9  C   UNK d   0     -18.813  -6.649 -27.420  0.00  0.00     0.067 A 
ATOM     10  C   UNK d   0     -18.606  -6.284 -26.081  0.00  0.00     0.062 C 
ATOM     11  N   UNK d   0     -19.959  -7.307 -27.696  0.00  0.00    -0.248 NA
ATOM     12  C   UNK d   0     -19.549  -6.283 -25.047  0.00  0.00     0.041 A 
ATOM     13  N   UNK d   0     -20.501  -7.175 -24.715  0.00  0.00    -0.355 N 
ATOM     14  C   UNK d   0     -19.620  -5.168 -24.192  0.00  0.00    -0.022 A 
ATOM     15  C   UNK d   0     -21.179  -6.652 -23.676  0.00  0.00     0.042 A 
ATOM     16  H   UNK d   0     -20.678  -8.164 -25.192  0.00  0.00     0.166 HD
ATOM     17  C   UNK d   0     -22.267  -7.166 -22.943  0.00  0.00     0.062 C 
ATOM     18  C   UNK d   0     -20.655  -5.394 -23.320  0.00  0.00    -0.013 A 
ATOM     19  C   UNK d   0     -23.407  -7.774 -23.403  0.00  0.00     0.067 A 
ATOM     20  N   UNK d   0     -23.431  -8.114 -24.695  0.00  0.00    -0.248 NA
ATOM     21  C   UNK d   0     -24.686  -8.163 -22.835  0.00  0.00    -0.011 A 
ATOM     22  C   UNK d   0     -24.634  -8.695 -25.012  0.00  0.00     0.066 A 
ATOM     23  C   UNK d   0     -24.782  -9.133 -26.320  0.00  0.00     0.062 C 
ATOM     24  C   UNK d   0     -25.402  -8.697 -23.782  0.00  0.00    -0.020 A 
ATOM     25  C   UNK d   0     -23.817  -9.138 -27.339  0.00  0.00     0.041 A 
ATOM     26  N   UNK d   0     -22.881  -8.244 -27.680  0.00  0.00    -0.355 N 
ATOM     27  C   UNK d   0     -23.744 -10.259 -28.194  0.00  0.00    -0.022 A 
ATOM     28  C   UNK d   0     -22.209  -8.760 -28.721  0.00  0.00     0.042 A 
ATOM     29  H   UNK d   0     -22.712  -7.246 -27.206  0.00  0.00     0.166 HD
ATOM     30  C   UNK d   0     -21.132  -8.255 -29.465  0.00  0.00     0.062 C 
ATOM     31  C   UNK d   0     -22.729 -10.028 -29.071  0.00  0.00    -0.013 A 
ATOM     32  C   UNK d   0     -20.022  -7.566 -29.003  0.00  0.00     0.066 A 
BRANCH   8  33
ATOM     33  C   UNK d   0     -16.785  -5.831 -28.827  0.00  0.00     0.151 C 
BRANCH  33  34
ATOM     34  C   UNK d   0     -15.846  -6.170 -27.742  0.00  0.00     0.143 C 
ATOM     35  O   UNK d   0     -15.505  -7.344 -27.540  0.00  0.00    -0.650 OA
BRANCH  34  36
ATOM     36  O   UNK d   0     -15.345  -5.167 -26.945  0.00  0.00    -0.776 OA
ATOM     37  H   UNK d   0     -14.687  -5.371 -26.180  0.00  0.00     0.167 HD
ENDBRANCH  34  36
ENDBRANCH  33  34
ENDBRANCH   8  33
BRANCH  31  38
ATOM     38  C   UNK d   0     -22.269 -10.961 -30.168  0.00  0.00     0.151 C 
BRANCH  38  39
ATOM     39  C   UNK d   0     -22.406 -10.384 -31.488  0.00  0.00     0.143 C 
ATOM     40  O   UNK d   0     -21.440 -10.253 -32.260  0.00  0.00    -0.650 OA
BRANCH  39  41
ATOM     41  O   UNK d   0     -23.660  -9.958 -31.925  0.00  0.00    -0.776 OA
ATOM     42  H   UNK d   0     -24.383  -9.841 -31.208  0.00  0.00     0.167 HD
ENDBRANCH  39  41
ENDBRANCH  38  39
ENDBRANCH  31  38
BRANCH  27  43
ATOM     43  C   UNK d   0     -24.586 -11.510 -28.208  0.00  0.00     0.052 C 
BRANCH  43  44
ATOM     44  C   UNK d   0     -26.050 -11.236 -28.336  0.00  0.00     0.115 C 
BRANCH  44  45
ATOM     45  C   UNK d   0     -26.753 -12.372 -27.686  0.00  0.00     0.139 C 
ATOM     46  O   UNK d   0     -26.544 -13.529 -28.129  0.00  0.00    -0.650 OA
BRANCH  45  47
ATOM     47  O   UNK d   0     -27.613 -12.208 -26.622  0.00  0.00    -0.776 OA
ATOM     48  H   UNK d   0     -28.466 -11.630 -26.675  0.00  0.00     0.167 HD
ENDBRANCH  45  47
ENDBRANCH  44  45
ENDBRANCH  43  44
ENDBRANCH  27  43
BRANCH  24  49
ATOM     49  C   UNK d   0     -26.753  -9.264 -23.635  0.00  0.00     0.052 C 
BRANCH  49  50
ATOM     50  C   UNK d   0     -27.787  -8.295 -24.148  0.00  0.00     0.115 C 
BRANCH  50  51
ATOM     51  C   UNK d   0     -27.979  -8.229 -25.590  0.00  0.00     0.139 C 
ATOM     52  O   UNK d   0     -27.883  -7.159 -26.237  0.00  0.00    -0.650 OA
BRANCH  51  53
ATOM     53  O   UNK d   0     -28.283  -9.383 -26.296  0.00  0.00    -0.776 OA
ATOM     54  H   UNK d   0     -27.526  -9.982 -26.576  0.00  0.00     0.167 HD
ENDBRANCH  51  53
ENDBRANCH  50  51
ENDBRANCH  49  50
ENDBRANCH  24  49
BRANCH  21  55
ATOM     55  C   UNK d   0     -25.059  -7.963 -21.403  0.00  0.00     0.151 C 
BRANCH  55  56
ATOM     56  C   UNK d   0     -24.576  -9.059 -20.549  0.00  0.00     0.143 C 
ATOM     57  O   UNK d   0     -25.282 -10.042 -20.249  0.00  0.00    -0.650 OA
BRANCH  56  58
ATOM     58  O   UNK d   0     -23.271  -8.978 -20.065  0.00  0.00    -0.776 OA
ATOM     59  H   UNK d   0     -23.094  -8.188 -19.419  0.00  0.00     0.167 HD
ENDBRANCH  56  58
ENDBRANCH  55  56
ENDBRANCH  21  55
BRANCH  18  60
ATOM     60  C   UNK d   0     -21.091  -4.445 -22.231  0.00  0.00     0.151 C 
BRANCH  60  61
ATOM     61  C   UNK d   0     -22.299  -3.776 -22.738  0.00  0.00     0.143 C 
ATOM     62  O   UNK d   0     -22.443  -3.234 -23.834  0.00  0.00    -0.650 OA
BRANCH  61  63
ATOM     63  O   UNK d   0     -23.401  -3.769 -21.849  0.00  0.00    -0.776 OA
ATOM     64  H   UNK d   0     -23.358  -3.277 -20.974  0.00  0.00     0.167 HD
ENDBRANCH  61  63
ENDBRANCH  60  61
ENDBRANCH  18  60
BRANCH  14  65
ATOM     65  C   UNK d   0     -18.730  -3.963 -24.075  0.00  0.00     0.052 C 
BRANCH  65  66
ATOM     66  C   UNK d   0     -17.568  -4.184 -23.172  0.00  0.00     0.115 C 
BRANCH  66  67
ATOM     67  C   UNK d   0     -16.356  -4.747 -23.696  0.00  0.00     0.139 C 
ATOM     68  O   UNK d   0     -15.411  -3.950 -24.048  0.00  0.00    -0.650 OA
BRANCH  67  69
ATOM     69  O   UNK d   0     -16.053  -6.096 -23.883  0.00  0.00    -0.776 OA
ATOM     70  H   UNK d   0     -16.805  -6.672 -24.287  0.00  0.00     0.167 HD
ENDBRANCH  67  69
ENDBRANCH  66  67
ENDBRANCH  65  66
ENDBRANCH  14  65
ENDBRANCH   6   7
ENDBRANCH   5   6
ENDBRANCH   2   5
TORSDOF 28
ENDMDL
MODEL 16
REMARK VINA RESULT:      -7.9     31.948     34.744
REMARK  28 active torsions:
REMARK  status: ('A' for Active; 'I' for Inactive)
REMARK    1  A    between atoms: C_2  and  O_3 
REMARK    2  A    between atoms: C_2  and  C_4 
REMARK    3  A    between atoms: C_4  and  C_5 
REMARK    4  A    between atoms: C_5  and  C_6 
REMARK    5  A    between atoms: C_7  and  C_8 
REMARK    6  A    between atoms: C_8  and  C_9 
REMARK    7  A    between atoms: C_9  and  O_11 
REMARK    8  A    between atoms: C_28  and  C_29 
REMARK    9  A    between atoms: C_29  and  C_30 
REMARK   10  A    between atoms: C_30  and  O_32 
REMARK   11  A    between atoms: C_33  and  C_34 
REMARK   12  A    between atoms: C_34  and  C_35 
REMARK   13  A    between atoms: C_35  and  C_36 
REMARK   14  A    between atoms: C_36  and  O_38 
REMARK   15  A    between atoms: C_39  and  C_40 
REMARK   16  A    between atoms: C_40  and  C_41 
REMARK   17  A    between atoms: C_41  and  C_42 
REMARK   18  A    between atoms: C_42  and  O_44 
REMARK   19  A    between atoms: C_45  and  C_46 
REMARK   20  A    between atoms: C_46  and  C_47 
REMARK   21  A    between atoms: C_47  and  O_49 
REMARK   22  A    between atoms: C_50  and  C_51 
REMARK   23  A    between atoms: C_51  and  C_52 
REMARK   24  A    between atoms: C_52  and  O_54 
REMARK   25  A    between atoms: C_55  and  C_56 
REMARK   26  A    between atoms: C_56  and  C_57 
REMARK   27  A    between atoms: C_57  and  C_58 
REMARK   28  A    between atoms: C_58  and  O_60 
ROOT
ATOM      1  O   UNK d   0     -17.389 -18.594   4.435  0.00  0.00    -0.650 OA
ATOM      2  C   UNK d   0     -16.834 -18.574   3.313  0.00  0.00     0.139 C 
ENDROOT
BRANCH   2   3
ATOM      3  O   UNK d   0     -17.552 -18.169   2.214  0.00  0.00    -0.776 OA
ATOM      4  H   UNK d   0     -17.481 -17.212   1.861  0.00  0.00     0.167 HD
ENDBRANCH   2   3
BRANCH   2   5
ATOM      5  C   UNK d   0     -15.409 -18.987   3.176  0.00  0.00     0.115 C 
BRANCH   5   6
ATOM      6  C   UNK d   0     -15.237 -19.861   1.963  0.00  0.00     0.052 C 
BRANCH   6   7
ATOM      7  C   UNK d   0     -13.946 -20.642   1.988  0.00  0.00    -0.020 A 
ATOM      8  C   UNK d   0     -13.781 -21.919   1.754  0.00  0.00    -0.011 A 
ATOM      9  C   UNK d   0     -12.367 -22.220   1.902  0.00  0.00     0.067 A 
ATOM     10  C   UNK d   0     -11.554 -23.357   1.771  0.00  0.00     0.062 C 
ATOM     11  N   UNK d   0     -11.745 -21.069   2.233  0.00  0.00    -0.248 NA
ATOM     12  C   UNK d   0     -10.158 -23.395   1.682  0.00  0.00     0.041 A 
ATOM     13  N   UNK d   0      -9.208 -22.726   2.362  0.00  0.00    -0.355 N 
ATOM     14  C   UNK d   0      -9.561 -24.207   0.700  0.00  0.00    -0.022 A 
ATOM     15  C   UNK d   0      -8.024 -23.087   1.833  0.00  0.00     0.042 A 
ATOM     16  H   UNK d   0      -9.370 -22.028   3.213  0.00  0.00     0.166 HD
ATOM     17  C   UNK d   0      -6.714 -22.689   2.169  0.00  0.00     0.062 C 
ATOM     18  C   UNK d   0      -8.205 -24.014   0.788  0.00  0.00    -0.013 A 
ATOM     19  C   UNK d   0      -6.235 -21.431   2.429  0.00  0.00     0.067 A 
ATOM     20  N   UNK d   0      -7.139 -20.460   2.586  0.00  0.00    -0.248 NA
ATOM     21  C   UNK d   0      -4.923 -20.823   2.578  0.00  0.00    -0.011 A 
ATOM     22  C   UNK d   0      -6.513 -19.261   2.824  0.00  0.00     0.066 A 
ATOM     23  C   UNK d   0      -7.339 -18.168   3.044  0.00  0.00     0.062 C 
ATOM     24  C   UNK d   0      -5.093 -19.552   2.805  0.00  0.00    -0.020 A 
ATOM     25  C   UNK d   0      -8.739 -18.153   3.143  0.00  0.00     0.041 A 
ATOM     26  N   UNK d   0      -9.684 -18.807   2.456  0.00  0.00    -0.355 N 
ATOM     27  C   UNK d   0      -9.337 -17.342   4.131  0.00  0.00    -0.022 A 
ATOM     28  C   UNK d   0     -10.866 -18.442   2.976  0.00  0.00     0.042 A 
ATOM     29  H   UNK d   0      -9.520 -19.500   1.595  0.00  0.00     0.166 HD
ATOM     30  C   UNK d   0     -12.176 -18.822   2.646  0.00  0.00     0.062 C 
ATOM     31  C   UNK d   0     -10.683 -17.519   4.033  0.00  0.00    -0.013 A 
ATOM     32  C   UNK d   0     -12.640 -20.082   2.300  0.00  0.00     0.066 A 
BRANCH   8  33
ATOM     33  C   UNK d   0     -14.828 -22.898   1.406  0.00  0.00     0.151 C 
BRANCH  33  34
ATOM     34  C   UNK d   0     -14.725 -23.374   0.015  0.00  0.00     0.143 C 
ATOM     35  O   UNK d   0     -14.778 -22.580  -0.935  0.00  0.00    -0.650 OA
BRANCH  34  36
ATOM     36  O   UNK d   0     -14.569 -24.719  -0.228  0.00  0.00    -0.776 OA
ATOM     37  H   UNK d   0     -14.008 -25.057  -1.022  0.00  0.00     0.167 HD
ENDBRANCH  34  36
ENDBRANCH  33  34
ENDBRANCH   8  33
BRANCH  31  38
ATOM     38  C   UNK d   0     -11.734 -16.862   4.898  0.00  0.00     0.151 C 
BRANCH  38  39
ATOM     39  C   UNK d   0     -12.053 -17.637   6.078  0.00  0.00     0.143 C 
ATOM     40  O   UNK d   0     -11.440 -17.500   7.151  0.00  0.00    -0.650 OA
BRANCH  39  41
ATOM     41  O   UNK d   0     -13.085 -18.574   6.025  0.00  0.00    -0.776 OA
ATOM     42  H   UNK d   0     -13.016 -19.374   6.662  0.00  0.00     0.167 HD
ENDBRANCH  39  41
ENDBRANCH  38  39
ENDBRANCH  31  38
BRANCH  27  43
ATOM     43  C   UNK d   0      -8.690 -16.424   5.138  0.00  0.00     0.052 C 
BRANCH  43  44
ATOM     44  C   UNK d   0      -8.598 -15.007   4.673  0.00  0.00     0.115 C 
BRANCH  44  45
ATOM     45  C   UNK d   0      -7.245 -14.524   5.053  0.00  0.00     0.139 C 
ATOM     46  O   UNK d   0      -6.511 -15.288   5.727  0.00  0.00    -0.650 OA
BRANCH  45  47
ATOM     47  O   UNK d   0      -6.767 -13.282   4.693  0.00  0.00    -0.776 OA
ATOM     48  H   UNK d   0      -5.842 -12.931   4.989  0.00  0.00     0.167 HD
ENDBRANCH  45  47
ENDBRANCH  44  45
ENDBRANCH  43  44
ENDBRANCH  27  43
BRANCH  24  49
ATOM     49  C   UNK d   0      -4.029 -18.565   3.054  0.00  0.00     0.052 C 
BRANCH  49  50
ATOM     50  C   UNK d   0      -3.539 -17.981   1.754  0.00  0.00     0.115 C 
BRANCH  50  51
ATOM     51  C   UNK d   0      -4.506 -17.243   0.951  0.00  0.00     0.139 C 
ATOM     52  O   UNK d   0      -4.991 -16.146   1.316  0.00  0.00    -0.650 OA
BRANCH  51  53
ATOM     53  O   UNK d   0      -4.921 -17.758  -0.268  0.00  0.00    -0.776 OA
ATOM     54  H   UNK d   0      -4.480 -18.596  -0.604  0.00  0.00     0.167 HD
ENDBRANCH  51  53
ENDBRANCH  50  51
ENDBRANCH  49  50
ENDBRANCH  24  49
BRANCH  21  55
ATOM     55  C   UNK d   0      -3.638 -21.575   2.482  0.00  0.00     0.151 C 
BRANCH  55  56
ATOM     56  C   UNK d   0      -3.005 -21.420   1.164  0.00  0.00     0.143 C 
ATOM     57  O   UNK d   0      -3.593 -21.684   0.097  0.00  0.00    -0.650 OA
BRANCH  56  58
ATOM     58  O   UNK d   0      -1.691 -20.956   1.125  0.00  0.00    -0.776 OA
ATOM     59  H   UNK d   0      -1.068 -21.464   0.472  0.00  0.00     0.167 HD
ENDBRANCH  56  58
ENDBRANCH  55  56
ENDBRANCH  21  55
BRANCH  18  60
ATOM     60  C   UNK d   0      -7.177 -24.686  -0.089  0.00  0.00     0.151 C 
BRANCH  60  61
ATOM     61  C   UNK d   0      -6.737 -25.880   0.649  0.00  0.00     0.143 C 
ATOM     62  O   UNK d   0      -7.326 -26.958   0.735  0.00  0.00    -0.650 OA
BRANCH  61  63
ATOM     63  O   UNK d   0      -5.499 -25.750   1.322  0.00  0.00    -0.776 OA
ATOM     64  H   UNK d   0      -4.715 -25.299   0.884  0.00  0.00     0.167 HD
ENDBRANCH  61  63
ENDBRANCH  60  61
ENDBRANCH  18  60
BRANCH  14  65
ATOM     65  C   UNK d   0     -10.162 -25.214  -0.238  0.00  0.00     0.052 C 
BRANCH  65  66
ATOM     66  C   UNK d   0     -10.363 -24.682  -1.612  0.00  0.00     0.115 C 
BRANCH  66  67
ATOM     67  C   UNK d   0     -11.534 -23.907  -1.911  0.00  0.00     0.139 C 
ATOM     68  O   UNK d   0     -12.518 -24.484  -2.504  0.00  0.00    -0.650 OA
BRANCH  67  69
ATOM     69  O   UNK d   0     -11.757 -22.558  -1.635  0.00  0.00    -0.776 OA
ATOM     70  H   UNK d   0     -11.970 -22.331  -0.653  0.00  0.00     0.167 HD
ENDBRANCH  67  69
ENDBRANCH  66  67
ENDBRANCH  65  66
ENDBRANCH  14  65
ENDBRANCH   6   7
ENDBRANCH   5   6
ENDBRANCH   2   5
TORSDOF 28
ENDMDL
MODEL 17
REMARK VINA RESULT:      -7.7     30.035     33.951
REMARK  28 active torsions:
REMARK  status: ('A' for Active; 'I' for Inactive)
REMARK    1  A    between atoms: C_2  and  O_3 
REMARK    2  A    between atoms: C_2  and  C_4 
REMARK    3  A    between atoms: C_4  and  C_5 
REMARK    4  A    between atoms: C_5  and  C_6 
REMARK    5  A    between atoms: C_7  and  C_8 
REMARK    6  A    between atoms: C_8  and  C_9 
REMARK    7  A    between atoms: C_9  and  O_11 
REMARK    8  A    between atoms: C_28  and  C_29 
REMARK    9  A    between atoms: C_29  and  C_30 
REMARK   10  A    between atoms: C_30  and  O_32 
REMARK   11  A    between atoms: C_33  and  C_34 
REMARK   12  A    between atoms: C_34  and  C_35 
REMARK   13  A    between atoms: C_35  and  C_36 
REMARK   14  A    between atoms: C_36  and  O_38 
REMARK   15  A    between atoms: C_39  and  C_40 
REMARK   16  A    between atoms: C_40  and  C_41 
REMARK   17  A    between atoms: C_41  and  C_42 
REMARK   18  A    between atoms: C_42  and  O_44 
REMARK   19  A    between atoms: C_45  and  C_46 
REMARK   20  A    between atoms: C_46  and  C_47 
REMARK   21  A    between atoms: C_47  and  O_49 
REMARK   22  A    between atoms: C_50  and  C_51 
REMARK   23  A    between atoms: C_51  and  C_52 
REMARK   24  A    between atoms: C_52  and  O_54 
REMARK   25  A    between atoms: C_55  and  C_56 
REMARK   26  A    between atoms: C_56  and  C_57 
REMARK   27  A    between atoms: C_57  and  C_58 
REMARK   28  A    between atoms: C_58  and  O_60 
ROOT
ATOM      1  O   UNK d   0      -2.032 -17.055  -7.466  0.00  0.00    -0.650 OA
ATOM      2  C   UNK d   0      -2.129 -17.171  -6.224  0.00  0.00     0.139 C 
ENDROOT
BRANCH   2   3
ATOM      3  O   UNK d   0      -3.373 -17.305  -5.655  0.00  0.00    -0.776 OA
ATOM      4  H   UNK d   0      -4.121 -17.809  -6.135  0.00  0.00     0.167 HD
ENDBRANCH   2   3
BRANCH   2   5
ATOM      5  C   UNK d   0      -0.905 -17.162  -5.374  0.00  0.00     0.115 C 
BRANCH   5   6
ATOM      6  C   UNK d   0      -0.403 -18.566  -5.174  0.00  0.00     0.052 C 
BRANCH   6   7
ATOM      7  C   UNK d   0      -1.004 -19.231  -3.959  0.00  0.00    -0.020 A 
ATOM      8  C   UNK d   0      -0.607 -19.130  -2.716  0.00  0.00    -0.011 A 
ATOM      9  C   UNK d   0      -1.484 -19.954  -1.901  0.00  0.00     0.067 A 
ATOM     10  C   UNK d   0      -1.610 -20.257  -0.536  0.00  0.00     0.062 C 
ATOM     11  N   UNK d   0      -2.383 -20.525  -2.731  0.00  0.00    -0.248 NA
ATOM     12  C   UNK d   0      -2.700 -20.860   0.101  0.00  0.00     0.041 A 
ATOM     13  N   UNK d   0      -3.470 -21.905  -0.258  0.00  0.00    -0.355 N 
ATOM     14  C   UNK d   0      -3.175 -20.309   1.305  0.00  0.00    -0.022 A 
ATOM     15  C   UNK d   0      -4.425 -22.026   0.683  0.00  0.00     0.042 A 
ATOM     16  H   UNK d   0      -3.329 -22.556  -1.149  0.00  0.00     0.166 HD
ATOM     17  C   UNK d   0      -5.482 -22.951   0.797  0.00  0.00     0.062 C 
ATOM     18  C   UNK d   0      -4.272 -21.043   1.680  0.00  0.00    -0.013 A 
ATOM     19  C   UNK d   0      -6.353 -23.389  -0.168  0.00  0.00     0.067 A 
ATOM     20  N   UNK d   0      -6.066 -23.067  -1.432  0.00  0.00    -0.248 NA
ATOM     21  C   UNK d   0      -7.593 -24.147  -0.190  0.00  0.00    -0.011 A 
ATOM     22  C   UNK d   0      -7.029 -23.559  -2.279  0.00  0.00     0.066 A 
ATOM     23  C   UNK d   0      -6.834 -23.328  -3.633  0.00  0.00     0.062 C 
ATOM     24  C   UNK d   0      -7.985 -24.239  -1.428  0.00  0.00    -0.020 A 
ATOM     25  C   UNK d   0      -5.726 -22.732  -4.254  0.00  0.00     0.041 A 
ATOM     26  N   UNK d   0      -4.971 -21.684  -3.905  0.00  0.00    -0.355 N 
ATOM     27  C   UNK d   0      -5.248 -23.288  -5.460  0.00  0.00    -0.022 A 
ATOM     28  C   UNK d   0      -4.023 -21.555  -4.847  0.00  0.00     0.042 A 
ATOM     29  H   UNK d   0      -5.120 -21.024  -3.015  0.00  0.00     0.166 HD
ATOM     30  C   UNK d   0      -2.971 -20.635  -4.977  0.00  0.00     0.062 C 
ATOM     31  C   UNK d   0      -4.170 -22.550  -5.842  0.00  0.00    -0.013 A 
ATOM     32  C   UNK d   0      -2.148 -20.130  -3.983  0.00  0.00     0.066 A 
BRANCH   8  33
ATOM     33  C   UNK d   0       0.526 -18.334  -2.211  0.00  0.00     0.151 C 
BRANCH  33  34
ATOM     34  C   UNK d   0       0.105 -17.047  -1.628  0.00  0.00     0.143 C 
ATOM     35  O   UNK d   0       0.073 -16.018  -2.317  0.00  0.00    -0.650 OA
BRANCH  34  36
ATOM     36  O   UNK d   0      -0.255 -16.992  -0.302  0.00  0.00    -0.776 OA
ATOM     37  H   UNK d   0      -0.703 -17.793   0.164  0.00  0.00     0.167 HD
ENDBRANCH  34  36
ENDBRANCH  33  34
ENDBRANCH   8  33
BRANCH  31  38
ATOM     38  C   UNK d   0      -3.321 -22.781  -7.070  0.00  0.00     0.151 C 
BRANCH  38  39
ATOM     39  C   UNK d   0      -3.875 -22.170  -8.259  0.00  0.00     0.143 C 
ATOM     40  O   UNK d   0      -4.783 -22.705  -8.921  0.00  0.00    -0.650 OA
BRANCH  39  41
ATOM     41  O   UNK d   0      -3.385 -20.938  -8.690  0.00  0.00    -0.776 OA
ATOM     42  H   UNK d   0      -2.371 -20.798  -8.628  0.00  0.00     0.167 HD
ENDBRANCH  39  41
ENDBRANCH  38  39
ENDBRANCH  31  38
BRANCH  27  43
ATOM     43  C   UNK d   0      -5.769 -24.466  -6.245  0.00  0.00     0.052 C 
BRANCH  43  44
ATOM     44  C   UNK d   0      -7.152 -24.260  -6.772  0.00  0.00     0.115 C 
BRANCH  44  45
ATOM     45  C   UNK d   0      -7.306 -25.179  -7.930  0.00  0.00     0.139 C 
ATOM     46  O   UNK d   0      -7.938 -26.250  -7.756  0.00  0.00    -0.650 OA
BRANCH  45  47
ATOM     47  O   UNK d   0      -6.790 -24.902  -9.178  0.00  0.00    -0.776 OA
ATOM     48  H   UNK d   0      -7.358 -24.942 -10.040  0.00  0.00     0.167 HD
ENDBRANCH  45  47
ENDBRANCH  44  45
ENDBRANCH  43  44
ENDBRANCH  27  43
BRANCH  24  49
ATOM     49  C   UNK d   0      -9.177 -24.957  -1.910  0.00  0.00     0.052 C 
BRANCH  49  50
ATOM     50  C   UNK d   0     -10.301 -23.989  -2.179  0.00  0.00     0.115 C 
BRANCH  50  51
ATOM     51  C   UNK d   0     -10.582 -23.668  -3.571  0.00  0.00     0.139 C 
ATOM     52  O   UNK d   0     -10.422 -22.518  -4.046  0.00  0.00    -0.650 OA
BRANCH  51  53
ATOM     53  O   UNK d   0     -11.048 -24.657  -4.423  0.00  0.00    -0.776 OA
ATOM     54  H   UNK d   0     -11.171 -25.583  -4.054  0.00  0.00     0.167 HD
ENDBRANCH  51  53
ENDBRANCH  50  51
ENDBRANCH  49  50
ENDBRANCH  24  49
BRANCH  21  55
ATOM     55  C   UNK d   0      -8.253 -24.703   1.027  0.00  0.00     0.151 C 
BRANCH  55  56
ATOM     56  C   UNK d   0      -8.249 -26.174   1.033  0.00  0.00     0.143 C 
ATOM     57  O   UNK d   0      -9.270 -26.851   1.266  0.00  0.00    -0.650 OA
BRANCH  56  58
ATOM     58  O   UNK d   0      -7.044 -26.821   0.766  0.00  0.00    -0.776 OA
ATOM     59  H   UNK d   0      -6.228 -26.456   1.289  0.00  0.00     0.167 HD
ENDBRANCH  56  58
ENDBRANCH  55  56
ENDBRANCH  21  55
BRANCH  18  60
ATOM     60  C   UNK d   0      -5.101 -20.790   2.915  0.00  0.00     0.151 C 
BRANCH  60  61
ATOM     61  C   UNK d   0      -6.450 -20.453   2.435  0.00  0.00     0.143 C 
ATOM     62  O   UNK d   0      -7.457 -21.158   2.498  0.00  0.00    -0.650 OA
BRANCH  61  63
ATOM     63  O   UNK d   0      -6.576 -19.174   1.841  0.00  0.00    -0.776 OA
ATOM     64  H   UNK d   0      -6.583 -18.341   2.402  0.00  0.00     0.167 HD
ENDBRANCH  61  63
ENDBRANCH  60  61
ENDBRANCH  18  60
BRANCH  14  65
ATOM     65  C   UNK d   0      -2.616 -19.215   2.171  0.00  0.00     0.052 C 
BRANCH  65  66
ATOM     66  C   UNK d   0      -3.355 -17.931   2.035  0.00  0.00     0.115 C 
BRANCH  66  67
ATOM     67  C   UNK d   0      -3.768 -17.481   0.736  0.00  0.00     0.139 C 
ATOM     68  O   UNK d   0      -5.025 -17.445   0.469  0.00  0.00    -0.650 OA
BRANCH  67  69
ATOM     69  O   UNK d   0      -2.957 -17.063  -0.319  0.00  0.00    -0.776 OA
ATOM     70  H   UNK d   0      -1.943 -17.174  -0.177  0.00  0.00     0.167 HD
ENDBRANCH  67  69
ENDBRANCH  66  67
ENDBRANCH  65  66
ENDBRANCH  14  65
ENDBRANCH   6   7
ENDBRANCH   5   6
ENDBRANCH   2   5
TORSDOF 28
ENDMDL
MODEL 18
REMARK VINA RESULT:      -7.6     30.587     34.819
REMARK  28 active torsions:
REMARK  status: ('A' for Active; 'I' for Inactive)
REMARK    1  A    between atoms: C_2  and  O_3 
REMARK    2  A    between atoms: C_2  and  C_4 
REMARK    3  A    between atoms: C_4  and  C_5 
REMARK    4  A    between atoms: C_5  and  C_6 
REMARK    5  A    between atoms: C_7  and  C_8 
REMARK    6  A    between atoms: C_8  and  C_9 
REMARK    7  A    between atoms: C_9  and  O_11 
REMARK    8  A    between atoms: C_28  and  C_29 
REMARK    9  A    between atoms: C_29  and  C_30 
REMARK   10  A    between atoms: C_30  and  O_32 
REMARK   11  A    between atoms: C_33  and  C_34 
REMARK   12  A    between atoms: C_34  and  C_35 
REMARK   13  A    between atoms: C_35  and  C_36 
REMARK   14  A    between atoms: C_36  and  O_38 
REMARK   15  A    between atoms: C_39  and  C_40 
REMARK   16  A    between atoms: C_40  and  C_41 
REMARK   17  A    between atoms: C_41  and  C_42 
REMARK   18  A    between atoms: C_42  and  O_44 
REMARK   19  A    between atoms: C_45  and  C_46 
REMARK   20  A    between atoms: C_46  and  C_47 
REMARK   21  A    between atoms: C_47  and  O_49 
REMARK   22  A    between atoms: C_50  and  C_51 
REMARK   23  A    between atoms: C_51  and  C_52 
REMARK   24  A    between atoms: C_52  and  O_54 
REMARK   25  A    between atoms: C_55  and  C_56 
REMARK   26  A    between atoms: C_56  and  C_57 
REMARK   27  A    between atoms: C_57  and  C_58 
REMARK   28  A    between atoms: C_58  and  O_60 
ROOT
ATOM      1  O   UNK d   0      -4.772 -23.128   2.164  0.00  0.00    -0.650 OA
ATOM      2  C   UNK d   0      -5.100 -23.401   0.988  0.00  0.00     0.139 C 
ENDROOT
BRANCH   2   3
ATOM      3  O   UNK d   0      -4.771 -22.529  -0.022  0.00  0.00    -0.776 OA
ATOM      4  H   UNK d   0      -4.706 -22.846  -0.992  0.00  0.00     0.167 HD
ENDBRANCH   2   3
BRANCH   2   5
ATOM      5  C   UNK d   0      -5.839 -24.661   0.690  0.00  0.00     0.115 C 
BRANCH   5   6
ATOM      6  C   UNK d   0      -6.886 -24.908   1.741  0.00  0.00     0.052 C 
BRANCH   6   7
ATOM      7  C   UNK d   0      -8.166 -24.153   1.475  0.00  0.00    -0.020 A 
ATOM      8  C   UNK d   0      -9.049 -24.384   0.538  0.00  0.00    -0.011 A 
ATOM      9  C   UNK d   0     -10.107 -23.396   0.669  0.00  0.00     0.067 A 
ATOM     10  C   UNK d   0     -11.316 -23.114   0.013  0.00  0.00     0.062 C 
ATOM     11  N   UNK d   0      -9.784 -22.598   1.708  0.00  0.00    -0.248 NA
ATOM     12  C   UNK d   0     -12.348 -22.282   0.461  0.00  0.00     0.041 A 
ATOM     13  N   UNK d   0     -12.319 -21.070   1.048  0.00  0.00    -0.355 N 
ATOM     14  C   UNK d   0     -13.676 -22.736   0.369  0.00  0.00    -0.022 A 
ATOM     15  C   UNK d   0     -13.594 -20.748   1.337  0.00  0.00     0.042 A 
ATOM     16  H   UNK d   0     -11.417 -20.447   1.236  0.00  0.00     0.166 HD
ATOM     17  C   UNK d   0     -14.128 -19.597   1.951  0.00  0.00     0.062 C 
ATOM     18  C   UNK d   0     -14.473 -21.768   0.927  0.00  0.00    -0.013 A 
ATOM     19  C   UNK d   0     -13.687 -18.931   3.066  0.00  0.00     0.067 A 
ATOM     20  N   UNK d   0     -12.487 -19.275   3.541  0.00  0.00    -0.248 NA
ATOM     21  C   UNK d   0     -14.211 -17.893   3.938  0.00  0.00    -0.011 A 
ATOM     22  C   UNK d   0     -12.189 -18.538   4.661  0.00  0.00     0.066 A 
ATOM     23  C   UNK d   0     -10.948 -18.768   5.238  0.00  0.00     0.062 C 
ATOM     24  C   UNK d   0     -13.331 -17.671   4.872  0.00  0.00    -0.020 A 
ATOM     25  C   UNK d   0      -9.920 -19.598   4.765  0.00  0.00     0.041 A 
ATOM     26  N   UNK d   0      -9.948 -20.809   4.195  0.00  0.00    -0.355 N 
ATOM     27  C   UNK d   0      -8.588 -19.139   4.854  0.00  0.00    -0.022 A 
ATOM     28  C   UNK d   0      -8.677 -21.137   3.914  0.00  0.00     0.042 A 
ATOM     29  H   UNK d   0     -10.854 -21.439   4.017  0.00  0.00     0.166 HD
ATOM     30  C   UNK d   0      -8.131 -22.281   3.312  0.00  0.00     0.062 C 
ATOM     31  C   UNK d   0      -7.795 -20.106   4.317  0.00  0.00    -0.013 A 
ATOM     32  C   UNK d   0      -8.627 -23.001   2.237  0.00  0.00     0.066 A 
BRANCH   8  33
ATOM     33  C   UNK d   0      -8.999 -25.448  -0.482  0.00  0.00     0.151 C 
BRANCH  33  34
ATOM     34  C   UNK d   0      -8.884 -24.919  -1.853  0.00  0.00     0.143 C 
ATOM     35  O   UNK d   0      -9.853 -24.939  -2.626  0.00  0.00    -0.650 OA
BRANCH  34  36
ATOM     36  O   UNK d   0      -7.684 -24.397  -2.278  0.00  0.00    -0.776 OA
ATOM     37  H   UNK d   0      -7.564 -23.386  -2.427  0.00  0.00     0.167 HD
ENDBRANCH  34  36
ENDBRANCH  33  34
ENDBRANCH   8  33
BRANCH  31  38
ATOM     38  C   UNK d   0      -6.291 -20.052   4.181  0.00  0.00     0.151 C 
BRANCH  38  39
ATOM     39  C   UNK d   0      -5.860 -19.433   2.946  0.00  0.00     0.143 C 
ATOM     40  O   UNK d   0      -5.537 -18.234   2.880  0.00  0.00    -0.650 OA
BRANCH  39  41
ATOM     41  O   UNK d   0      -5.800 -20.196   1.780  0.00  0.00    -0.776 OA
ATOM     42  H   UNK d   0      -6.526 -20.909   1.657  0.00  0.00     0.167 HD
ENDBRANCH  39  41
ENDBRANCH  38  39
ENDBRANCH  31  38
BRANCH  27  43
ATOM     43  C   UNK d   0      -8.055 -17.847   5.419  0.00  0.00     0.052 C 
BRANCH  43  44
ATOM     44  C   UNK d   0      -8.110 -16.711   4.450  0.00  0.00     0.115 C 
BRANCH  44  45
ATOM     45  C   UNK d   0      -7.693 -15.495   5.197  0.00  0.00     0.139 C 
ATOM     46  O   UNK d   0      -7.011 -14.633   4.590  0.00  0.00    -0.650 OA
BRANCH  45  47
ATOM     47  O   UNK d   0      -8.027 -15.277   6.516  0.00  0.00    -0.776 OA
ATOM     48  H   UNK d   0      -8.463 -14.401   6.846  0.00  0.00     0.167 HD
ENDBRANCH  45  47
ENDBRANCH  44  45
ENDBRANCH  43  44
ENDBRANCH  27  43
BRANCH  24  49
ATOM     49  C   UNK d   0     -13.439 -16.669   5.946  0.00  0.00     0.052 C 
BRANCH  49  50
ATOM     50  C   UNK d   0     -14.117 -17.265   7.153  0.00  0.00     0.115 C 
BRANCH  50  51
ATOM     51  C   UNK d   0     -13.295 -18.069   8.047  0.00  0.00     0.139 C 
ATOM     52  O   UNK d   0     -13.387 -19.318   8.111  0.00  0.00    -0.650 OA
BRANCH  51  53
ATOM     53  O   UNK d   0     -12.369 -17.448   8.872  0.00  0.00    -0.776 OA
ATOM     54  H   UNK d   0     -12.680 -16.686   9.448  0.00  0.00     0.167 HD
ENDBRANCH  51  53
ENDBRANCH  50  51
ENDBRANCH  49  50
ENDBRANCH  24  49
BRANCH  21  55
ATOM     55  C   UNK d   0     -15.534 -17.229   3.745  0.00  0.00     0.151 C 
BRANCH  55  56
ATOM     56  C   UNK d   0     -16.652 -18.105   4.127  0.00  0.00     0.143 C 
ATOM     57  O   UNK d   0     -17.288 -18.787   3.299  0.00  0.00    -0.650 OA
BRANCH  56  58
ATOM     58  O   UNK d   0     -17.000 -18.164   5.475  0.00  0.00    -0.776 OA
ATOM     59  H   UNK d   0     -17.780 -17.541   5.751  0.00  0.00     0.167 HD
ENDBRANCH  56  58
ENDBRANCH  55  56
ENDBRANCH  21  55
BRANCH  18  60
ATOM     60  C   UNK d   0     -15.975 -21.848   1.046  0.00  0.00     0.151 C 
BRANCH  60  61
ATOM     61  C   UNK d   0     -16.508 -20.850   0.107  0.00  0.00     0.143 C 
ATOM     62  O   UNK d   0     -16.251 -20.748  -1.093  0.00  0.00    -0.650 OA
BRANCH  61  63
ATOM     63  O   UNK d   0     -17.413 -19.917   0.668  0.00  0.00    -0.776 OA
ATOM     64  H   UNK d   0     -18.236 -20.223   1.156  0.00  0.00     0.167 HD
ENDBRANCH  61  63
ENDBRANCH  60  61
ENDBRANCH  18  60
BRANCH  14  65
ATOM     65  C   UNK d   0     -14.251 -23.959  -0.289  0.00  0.00     0.052 C 
BRANCH  65  66
ATOM     66  C   UNK d   0     -14.638 -23.729  -1.707  0.00  0.00     0.115 C 
BRANCH  66  67
ATOM     67  C   UNK d   0     -13.618 -23.559  -2.703  0.00  0.00     0.139 C 
ATOM     68  O   UNK d   0     -13.494 -22.408  -3.263  0.00  0.00    -0.650 OA
BRANCH  67  69
ATOM     69  O   UNK d   0     -12.709 -24.510  -3.165  0.00  0.00    -0.776 OA
ATOM     70  H   UNK d   0     -12.090 -24.204  -3.929  0.00  0.00     0.167 HD
ENDBRANCH  67  69
ENDBRANCH  66  67
ENDBRANCH  65  66
ENDBRANCH  14  65
ENDBRANCH   6   7
ENDBRANCH   5   6
ENDBRANCH   2   5
TORSDOF 28
ENDMDL
MODEL 19
REMARK VINA RESULT:      -7.5     29.088     33.961
REMARK  28 active torsions:
REMARK  status: ('A' for Active; 'I' for Inactive)
REMARK    1  A    between atoms: C_2  and  O_3 
REMARK    2  A    between atoms: C_2  and  C_4 
REMARK    3  A    between atoms: C_4  and  C_5 
REMARK    4  A    between atoms: C_5  and  C_6 
REMARK    5  A    between atoms: C_7  and  C_8 
REMARK    6  A    between atoms: C_8  and  C_9 
REMARK    7  A    between atoms: C_9  and  O_11 
REMARK    8  A    between atoms: C_28  and  C_29 
REMARK    9  A    between atoms: C_29  and  C_30 
REMARK   10  A    between atoms: C_30  and  O_32 
REMARK   11  A    between atoms: C_33  and  C_34 
REMARK   12  A    between atoms: C_34  and  C_35 
REMARK   13  A    between atoms: C_35  and  C_36 
REMARK   14  A    between atoms: C_36  and  O_38 
REMARK   15  A    between atoms: C_39  and  C_40 
REMARK   16  A    between atoms: C_40  and  C_41 
REMARK   17  A    between atoms: C_41  and  C_42 
REMARK   18  A    between atoms: C_42  and  O_44 
REMARK   19  A    between atoms: C_45  and  C_46 
REMARK   20  A    between atoms: C_46  and  C_47 
REMARK   21  A    between atoms: C_47  and  O_49 
REMARK   22  A    between atoms: C_50  and  C_51 
REMARK   23  A    between atoms: C_51  and  C_52 
REMARK   24  A    between atoms: C_52  and  O_54 
REMARK   25  A    between atoms: C_55  and  C_56 
REMARK   26  A    between atoms: C_56  and  C_57 
REMARK   27  A    between atoms: C_57  and  C_58 
REMARK   28  A    between atoms: C_58  and  O_60 
ROOT
ATOM      1  O   UNK d   0     -11.869 -20.372  -6.223  0.00  0.00    -0.650 OA
ATOM      2  C   UNK d   0     -11.865 -21.623  -6.265  0.00  0.00     0.139 C 
ENDROOT
BRANCH   2   3
ATOM      3  O   UNK d   0     -12.958 -22.283  -6.772  0.00  0.00    -0.776 OA
ATOM      4  H   UNK d   0     -13.572 -21.838  -7.458  0.00  0.00     0.167 HD
ENDBRANCH   2   3
BRANCH   2   5
ATOM      5  C   UNK d   0     -10.684 -22.385  -5.769  0.00  0.00     0.115 C 
BRANCH   5   6
ATOM      6  C   UNK d   0     -11.135 -23.618  -5.034  0.00  0.00     0.052 C 
BRANCH   6   7
ATOM      7  C   UNK d   0     -10.861 -23.544  -3.551  0.00  0.00    -0.020 A 
ATOM      8  C   UNK d   0      -9.926 -24.167  -2.880  0.00  0.00    -0.011 A 
ATOM      9  C   UNK d   0     -10.057 -23.793  -1.482  0.00  0.00     0.067 A 
ATOM     10  C   UNK d   0      -9.378 -24.083  -0.288  0.00  0.00     0.062 C 
ATOM     11  N   UNK d   0     -11.102 -22.943  -1.391  0.00  0.00    -0.248 NA
ATOM     12  C   UNK d   0      -9.480 -23.405   0.931  0.00  0.00     0.041 A 
ATOM     13  N   UNK d   0     -10.552 -22.926   1.592  0.00  0.00    -0.355 N 
ATOM     14  C   UNK d   0      -8.303 -23.078   1.629  0.00  0.00    -0.022 A 
ATOM     15  C   UNK d   0     -10.084 -22.298   2.687  0.00  0.00     0.042 A 
ATOM     16  H   UNK d   0     -11.618 -23.048   1.300  0.00  0.00     0.166 HD
ATOM     17  C   UNK d   0     -10.771 -21.625   3.717  0.00  0.00     0.062 C 
ATOM     18  C   UNK d   0      -8.679 -22.371   2.744  0.00  0.00    -0.013 A 
ATOM     19  C   UNK d   0     -11.806 -20.730   3.622  0.00  0.00     0.067 A 
ATOM     20  N   UNK d   0     -12.391 -20.606   2.428  0.00  0.00    -0.248 NA
ATOM     21  C   UNK d   0     -12.475 -19.807   4.524  0.00  0.00    -0.011 A 
ATOM     22  C   UNK d   0     -13.393 -19.668   2.484  0.00  0.00     0.066 A 
ATOM     23  C   UNK d   0     -14.113 -19.466   1.315  0.00  0.00     0.062 C 
ATOM     24  C   UNK d   0     -13.399 -19.186   3.851  0.00  0.00    -0.020 A 
ATOM     25  C   UNK d   0     -14.003 -20.167   0.105  0.00  0.00     0.041 A 
ATOM     26  N   UNK d   0     -12.937 -20.629  -0.560  0.00  0.00    -0.355 N 
ATOM     27  C   UNK d   0     -15.185 -20.498  -0.593  0.00  0.00    -0.022 A 
ATOM     28  C   UNK d   0     -13.400 -21.249  -1.657  0.00  0.00     0.042 A 
ATOM     29  H   UNK d   0     -11.865 -20.497  -0.271  0.00  0.00     0.166 HD
ATOM     30  C   UNK d   0     -12.728 -21.914  -2.694  0.00  0.00     0.062 C 
ATOM     31  C   UNK d   0     -14.813 -21.184  -1.708  0.00  0.00    -0.013 A 
ATOM     32  C   UNK d   0     -11.628 -22.752  -2.601  0.00  0.00     0.066 A 
BRANCH   8  33
ATOM     33  C   UNK d   0      -8.914 -25.092  -3.424  0.00  0.00     0.151 C 
BRANCH  33  34
ATOM     34  C   UNK d   0      -9.144 -26.491  -3.020  0.00  0.00     0.143 C 
ATOM     35  O   UNK d   0     -10.290 -26.961  -2.979  0.00  0.00    -0.650 OA
BRANCH  34  36
ATOM     36  O   UNK d   0      -8.070 -27.282  -2.685  0.00  0.00    -0.776 OA
ATOM     37  H   UNK d   0      -7.430 -27.019  -1.923  0.00  0.00     0.167 HD
ENDBRANCH  34  36
ENDBRANCH  33  34
ENDBRANCH   8  33
BRANCH  31  38
ATOM     38  C   UNK d   0     -15.741 -21.755  -2.754  0.00  0.00     0.151 C 
BRANCH  38  39
ATOM     39  C   UNK d   0     -15.908 -20.880  -3.895  0.00  0.00     0.143 C 
ATOM     40  O   UNK d   0     -16.623 -19.864  -3.855  0.00  0.00    -0.650 OA
BRANCH  39  41
ATOM     41  O   UNK d   0     -15.248 -21.175  -5.088  0.00  0.00    -0.776 OA
ATOM     42  H   UNK d   0     -15.249 -22.155  -5.386  0.00  0.00     0.167 HD
ENDBRANCH  39  41
ENDBRANCH  38  39
ENDBRANCH  31  38
BRANCH  27  43
ATOM     43  C   UNK d   0     -16.620 -20.192  -0.246  0.00  0.00     0.052 C 
BRANCH  43  44
ATOM     44  C   UNK d   0     -17.107 -20.928   0.960  0.00  0.00     0.115 C 
BRANCH  44  45
ATOM     45  C   UNK d   0     -18.014 -20.001   1.686  0.00  0.00     0.139 C 
ATOM     46  O   UNK d   0     -17.498 -19.080   2.366  0.00  0.00    -0.650 OA
BRANCH  45  47
ATOM     47  O   UNK d   0     -19.387 -20.108   1.637  0.00  0.00    -0.776 OA
ATOM     48  H   UNK d   0     -20.011 -19.288   1.577  0.00  0.00     0.167 HD
ENDBRANCH  45  47
ENDBRANCH  44  45
ENDBRANCH  43  44
ENDBRANCH  27  43
BRANCH  24  49
ATOM     49  C   UNK d   0     -14.343 -18.189   4.387  0.00  0.00     0.052 C 
BRANCH  49  50
ATOM     50  C   UNK d   0     -14.143 -16.860   3.706  0.00  0.00     0.115 C 
BRANCH  50  51
ATOM     51  C   UNK d   0     -12.858 -16.202   3.895  0.00  0.00     0.139 C 
ATOM     52  O   UNK d   0     -11.922 -16.293   3.066  0.00  0.00    -0.650 OA
BRANCH  51  53
ATOM     53  O   UNK d   0     -12.637 -15.441   5.033  0.00  0.00    -0.776 OA
ATOM     54  H   UNK d   0     -11.883 -15.706   5.643  0.00  0.00     0.167 HD
ENDBRANCH  51  53
ENDBRANCH  50  51
ENDBRANCH  49  50
ENDBRANCH  24  49
BRANCH  21  55
ATOM     55  C   UNK d   0     -12.123 -19.646   5.966  0.00  0.00     0.151 C 
BRANCH  55  56
ATOM     56  C   UNK d   0     -11.226 -18.502   6.190  0.00  0.00     0.143 C 
ATOM     57  O   UNK d   0     -11.529 -17.540   6.923  0.00  0.00    -0.650 OA
BRANCH  56  58
ATOM     58  O   UNK d   0      -9.989 -18.511   5.547  0.00  0.00    -0.776 OA
ATOM     59  H   UNK d   0      -9.796 -17.680   4.959  0.00  0.00     0.167 HD
ENDBRANCH  56  58
ENDBRANCH  55  56
ENDBRANCH  21  55
BRANCH  18  60
ATOM     60  C   UNK d   0      -7.729 -21.814   3.775  0.00  0.00     0.151 C 
BRANCH  60  61
ATOM     61  C   UNK d   0      -7.297 -20.505   3.261  0.00  0.00     0.143 C 
ATOM     62  O   UNK d   0      -6.271 -20.258   2.628  0.00  0.00    -0.650 OA
BRANCH  61  63
ATOM     63  O   UNK d   0      -8.176 -19.430   3.538  0.00  0.00    -0.776 OA
ATOM     64  H   UNK d   0      -7.842 -18.586   3.969  0.00  0.00     0.167 HD
ENDBRANCH  61  63
ENDBRANCH  60  61
ENDBRANCH  18  60
BRANCH  14  65
ATOM     65  C   UNK d   0      -6.874 -23.464   1.376  0.00  0.00     0.052 C 
BRANCH  65  66
ATOM     66  C   UNK d   0      -6.596 -24.895   1.672  0.00  0.00     0.115 C 
BRANCH  66  67
ATOM     67  C   UNK d   0      -5.268 -25.413   1.500  0.00  0.00     0.139 C 
ATOM     68  O   UNK d   0      -5.130 -26.617   1.071  0.00  0.00    -0.650 OA
BRANCH  67  69
ATOM     69  O   UNK d   0      -4.060 -24.762   1.746  0.00  0.00    -0.776 OA
ATOM     70  H   UNK d   0      -4.127 -23.875   2.266  0.00  0.00     0.167 HD
ENDBRANCH  67  69
ENDBRANCH  66  67
ENDBRANCH  65  66
ENDBRANCH  14  65
ENDBRANCH   6   7
ENDBRANCH   5   6
ENDBRANCH   2   5
TORSDOF 28
ENDMDL
MODEL 20
REMARK VINA RESULT:      -7.5     30.400     35.108
REMARK  28 active torsions:
REMARK  status: ('A' for Active; 'I' for Inactive)
REMARK    1  A    between atoms: C_2  and  O_3 
REMARK    2  A    between atoms: C_2  and  C_4 
REMARK    3  A    between atoms: C_4  and  C_5 
REMARK    4  A    between atoms: C_5  and  C_6 
REMARK    5  A    between atoms: C_7  and  C_8 
REMARK    6  A    between atoms: C_8  and  C_9 
REMARK    7  A    between atoms: C_9  and  O_11 
REMARK    8  A    between atoms: C_28  and  C_29 
REMARK    9  A    between atoms: C_29  and  C_30 
REMARK   10  A    between atoms: C_30  and  O_32 
REMARK   11  A    between atoms: C_33  and  C_34 
REMARK   12  A    between atoms: C_34  and  C_35 
REMARK   13  A    between atoms: C_35  and  C_36 
REMARK   14  A    between atoms: C_36  and  O_38 
REMARK   15  A    between atoms: C_39  and  C_40 
REMARK   16  A    between atoms: C_40  and  C_41 
REMARK   17  A    between atoms: C_41  and  C_42 
REMARK   18  A    between atoms: C_42  and  O_44 
REMARK   19  A    between atoms: C_45  and  C_46 
REMARK   20  A    between atoms: C_46  and  C_47 
REMARK   21  A    between atoms: C_47  and  O_49 
REMARK   22  A    between atoms: C_50  and  C_51 
REMARK   23  A    between atoms: C_51  and  C_52 
REMARK   24  A    between atoms: C_52  and  O_54 
REMARK   25  A    between atoms: C_55  and  C_56 
REMARK   26  A    between atoms: C_56  and  C_57 
REMARK   27  A    between atoms: C_57  and  C_58 
REMARK   28  A    between atoms: C_58  and  O_60 
ROOT
ATOM      1  O   UNK d   0     -10.212 -22.503  -4.503  0.00  0.00    -0.650 OA
ATOM      2  C   UNK d   0     -10.272 -23.655  -4.019  0.00  0.00     0.139 C 
ENDROOT
BRANCH   2   3
ATOM      3  O   UNK d   0     -11.428 -24.384  -4.159  0.00  0.00    -0.776 OA
ATOM      4  H   UNK d   0     -12.058 -24.532  -3.367  0.00  0.00     0.167 HD
ENDBRANCH   2   3
BRANCH   2   5
ATOM      5  C   UNK d   0      -9.099 -24.226  -3.299  0.00  0.00     0.115 C 
BRANCH   5   6
ATOM      6  C   UNK d   0      -9.562 -25.043  -2.123  0.00  0.00     0.052 C 
BRANCH   6   7
ATOM      7  C   UNK d   0      -9.451 -24.295  -0.816  0.00  0.00    -0.020 A 
ATOM      8  C   UNK d   0      -8.447 -24.298   0.023  0.00  0.00    -0.011 A 
ATOM      9  C   UNK d   0      -8.799 -23.439   1.141  0.00  0.00     0.067 A 
ATOM     10  C   UNK d   0      -8.176 -23.011   2.324  0.00  0.00     0.062 C 
ATOM     11  N   UNK d   0     -10.037 -22.958   0.903  0.00  0.00    -0.248 NA
ATOM     12  C   UNK d   0      -8.566 -21.952   3.151  0.00  0.00     0.041 A 
ATOM     13  N   UNK d   0      -9.782 -21.569   3.587  0.00  0.00    -0.355 N 
ATOM     14  C   UNK d   0      -7.588 -21.051   3.611  0.00  0.00    -0.022 A 
ATOM     15  C   UNK d   0      -9.601 -20.443   4.303  0.00  0.00     0.042 A 
ATOM     16  H   UNK d   0     -10.746 -22.094   3.407  0.00  0.00     0.166 HD
ATOM     17  C   UNK d   0     -10.533 -19.632   4.980  0.00  0.00     0.062 C 
ATOM     18  C   UNK d   0      -8.238 -20.088   4.340  0.00  0.00    -0.013 A 
ATOM     19  C   UNK d   0     -11.757 -19.185   4.554  0.00  0.00     0.067 A 
ATOM     20  N   UNK d   0     -12.245 -19.731   3.437  0.00  0.00    -0.248 NA
ATOM     21  C   UNK d   0     -12.728 -18.204   5.010  0.00  0.00    -0.011 A 
ATOM     22  C   UNK d   0     -13.463 -19.177   3.128  0.00  0.00     0.066 A 
ATOM     23  C   UNK d   0     -14.103 -19.681   2.006  0.00  0.00     0.062 C 
ATOM     24  C   UNK d   0     -13.722 -18.201   4.169  0.00  0.00    -0.020 A 
ATOM     25  C   UNK d   0     -13.701 -20.754   1.196  0.00  0.00     0.041 A 
ATOM     26  N   UNK d   0     -12.495 -21.127   0.751  0.00  0.00    -0.355 N 
ATOM     27  C   UNK d   0     -14.682 -21.660   0.739  0.00  0.00    -0.022 A 
ATOM     28  C   UNK d   0     -12.673 -22.245   0.028  0.00  0.00     0.042 A 
ATOM     29  H   UNK d   0     -11.528 -20.593   0.923  0.00  0.00     0.166 HD
ATOM     30  C   UNK d   0     -11.757 -23.056  -0.658  0.00  0.00     0.062 C 
ATOM     31  C   UNK d   0     -14.041 -22.607   0.000  0.00  0.00    -0.013 A 
ATOM     32  C   UNK d   0     -10.485 -23.436  -0.259  0.00  0.00     0.066 A 
BRANCH   8  33
ATOM     33  C   UNK d   0      -7.179 -25.038  -0.118  0.00  0.00     0.151 C 
BRANCH  33  34
ATOM     34  C   UNK d   0      -7.318 -26.472   0.192  0.00  0.00     0.143 C 
ATOM     35  O   UNK d   0      -7.962 -26.850   1.181  0.00  0.00    -0.650 OA
BRANCH  34  36
ATOM     36  O   UNK d   0      -6.721 -27.401  -0.629  0.00  0.00    -0.776 OA
ATOM     37  H   UNK d   0      -6.681 -27.265  -1.649  0.00  0.00     0.167 HD
ENDBRANCH  34  36
ENDBRANCH  33  34
ENDBRANCH   8  33
BRANCH  31  38
ATOM     38  C   UNK d   0     -14.684 -23.792  -0.681  0.00  0.00     0.151 C 
BRANCH  38  39
ATOM     39  C   UNK d   0     -14.777 -23.632  -2.117  0.00  0.00     0.143 C 
ATOM     40  O   UNK d   0     -15.483 -22.756  -2.644  0.00  0.00    -0.650 OA
BRANCH  39  41
ATOM     41  O   UNK d   0     -14.053 -24.484  -2.950  0.00  0.00    -0.776 OA
ATOM     42  H   UNK d   0     -13.310 -25.038  -2.512  0.00  0.00     0.167 HD
ENDBRANCH  39  41
ENDBRANCH  38  39
ENDBRANCH  31  38
BRANCH  27  43
ATOM     43  C   UNK d   0     -16.172 -21.657   0.972  0.00  0.00     0.052 C 
BRANCH  43  44
ATOM     44  C   UNK d   0     -16.918 -20.779   0.021  0.00  0.00     0.115 C 
BRANCH  44  45
ATOM     45  C   UNK d   0     -17.802 -19.914   0.845  0.00  0.00     0.139 C 
ATOM     46  O   UNK d   0     -18.607 -20.471   1.632  0.00  0.00    -0.650 OA
BRANCH  45  47
ATOM     47  O   UNK d   0     -17.770 -18.538   0.783  0.00  0.00    -0.776 OA
ATOM     48  H   UNK d   0     -16.959 -18.012   0.419  0.00  0.00     0.167 HD
ENDBRANCH  45  47
ENDBRANCH  44  45
ENDBRANCH  43  44
ENDBRANCH  27  43
BRANCH  24  49
ATOM     49  C   UNK d   0     -14.942 -17.383   4.270  0.00  0.00     0.052 C 
BRANCH  49  50
ATOM     50  C   UNK d   0     -15.932 -18.030   5.204  0.00  0.00     0.115 C 
BRANCH  50  51
ATOM     51  C   UNK d   0     -17.342 -17.925   4.856  0.00  0.00     0.139 C 
ATOM     52  O   UNK d   0     -18.140 -17.185   5.479  0.00  0.00    -0.650 OA
BRANCH  51  53
ATOM     53  O   UNK d   0     -17.845 -18.667   3.798  0.00  0.00    -0.776 OA
ATOM     54  H   UNK d   0     -18.558 -19.348   3.991  0.00  0.00     0.167 HD
ENDBRANCH  51  53
ENDBRANCH  50  51
ENDBRANCH  49  50
ENDBRANCH  24  49
BRANCH  21  55
ATOM     55  C   UNK d   0     -12.563 -17.375   6.240  0.00  0.00     0.151 C 
BRANCH  55  56
ATOM     56  C   UNK d   0     -12.675 -18.179   7.466  0.00  0.00     0.143 C 
ATOM     57  O   UNK d   0     -13.623 -18.961   7.676  0.00  0.00    -0.650 OA
BRANCH  56  58
ATOM     58  O   UNK d   0     -11.669 -18.049   8.423  0.00  0.00    -0.776 OA
ATOM     59  H   UNK d   0     -11.919 -18.392   9.368  0.00  0.00     0.167 HD
ENDBRANCH  56  58
ENDBRANCH  55  56
ENDBRANCH  21  55
BRANCH  18  60
ATOM     60  C   UNK d   0      -7.569 -18.915   5.014  0.00  0.00     0.151 C 
BRANCH  60  61
ATOM     61  C   UNK d   0      -7.467 -17.865   3.988  0.00  0.00     0.143 C 
ATOM     62  O   UNK d   0      -8.390 -17.361   3.348  0.00  0.00    -0.650 OA
BRANCH  61  63
ATOM     63  O   UNK d   0      -6.154 -17.403   3.729  0.00  0.00    -0.776 OA
ATOM     64  H   UNK d   0      -5.996 -16.557   3.211  0.00  0.00     0.167 HD
ENDBRANCH  61  63
ENDBRANCH  60  61
ENDBRANCH  18  60
BRANCH  14  65
ATOM     65  C   UNK d   0      -6.091 -21.087   3.496  0.00  0.00     0.052 C 
BRANCH  65  66
ATOM     66  C   UNK d   0      -5.595 -20.570   2.192  0.00  0.00     0.115 C 
BRANCH  66  67
ATOM     67  C   UNK d   0      -4.298 -19.959   2.115  0.00  0.00     0.139 C 
ATOM     68  O   UNK d   0      -4.228 -18.685   1.960  0.00  0.00    -0.650 OA
BRANCH  67  69
ATOM     69  O   UNK d   0      -3.054 -20.585   2.189  0.00  0.00    -0.776 OA
ATOM     70  H   UNK d   0      -3.054 -21.534   2.590  0.00  0.00     0.167 HD
ENDBRANCH  67  69
ENDBRANCH  66  67
ENDBRANCH  65  66
ENDBRANCH  14  65
ENDBRANCH   6   7
ENDBRANCH   5   6
ENDBRANCH   2   5
TORSDOF 28
ENDMDL
