MODEL 1
REMARK VINA RESULT:     -10.2      0.000      0.000
REMARK  16 active torsions:
REMARK  status: ('A' for Active; 'I' for Inactive)
REMARK    1  A    between atoms: C_6  and  C_7 
REMARK    2  A    between atoms: C_7  and  C_8 
REMARK    3  A    between atoms: C_8  and  C_9 
REMARK    4  A    between atoms: C_9  and  O_11 
REMARK    5  A    between atoms: C_16  and  C_17 
REMARK    6  A    between atoms: C_17  and  C_18 
REMARK    7  A    between atoms: C_18  and  C_19 
REMARK    8  A    between atoms: C_19  and  O_21 
REMARK    9  A    between atoms: C_28  and  C_29 
REMARK   10  A    between atoms: C_29  and  C_30 
REMARK   11  A    between atoms: C_30  and  C_31 
REMARK   12  A    between atoms: C_31  and  O_33 
REMARK   13  A    between atoms: C_42  and  C_43 
REMARK   14  A    between atoms: C_43  and  C_44 
REMARK   15  A    between atoms: C_44  and  C_45 
REMARK   16  A    between atoms: C_45  and  O_47 
ROOT
HETATM    1  C   UNK     0       9.629 -15.315  -0.899  0.00  0.00     0.051 C 
HETATM    2  C   UNK     0      10.549 -14.147  -1.189  0.00  0.00    -0.031 A 
HETATM    3  C   UNK     0      11.365 -13.921  -2.287  0.00  0.00     0.021 A 
HETATM    4  N   UNK     0      12.036 -12.759  -2.106  0.00  0.00    -0.361 N 
HETATM    5  C   UNK     0      11.659 -12.235  -0.922  0.00  0.00     0.022 A 
HETATM    6  C   UNK     0      10.732 -13.079  -0.320  0.00  0.00    -0.027 A 
HETATM    7  C   UNK     0      12.031 -10.925  -0.299  0.00  0.00     0.115 C 
HETATM    8  C   UNK     0      12.058  -9.717  -1.218  0.00  0.00     0.021 A 
HETATM    9  N   UNK     0      11.256  -9.438  -2.257  0.00  0.00    -0.361 N 
HETATM   10  C   UNK     0      11.704  -8.306  -2.840  0.00  0.00     0.022 A 
HETATM   11  C   UNK     0      12.820  -7.838  -2.152  0.00  0.00    -0.027 A 
HETATM   12  C   UNK     0      13.048  -8.722  -1.129  0.00  0.00    -0.031 A 
HETATM   13  C   UNK     0      14.162  -8.612  -0.112  0.00  0.00     0.051 C 
HETATM   14  C   UNK     0      11.133  -7.652  -4.095  0.00  0.00     0.115 C 
HETATM   15  C   UNK     0      11.194  -8.535  -5.331  0.00  0.00     0.021 A 
HETATM   16  N   UNK     0      10.642  -9.752  -5.500  0.00  0.00    -0.361 N 
HETATM   17  C   UNK     0      10.984 -10.225  -6.700  0.00  0.00     0.022 A 
HETATM   18  C   UNK     0      11.789  -9.268  -7.349  0.00  0.00    -0.027 A 
HETATM   19  C   UNK     0      11.912  -8.213  -6.481  0.00  0.00    -0.031 A 
HETATM   20  C   UNK     0      12.675  -6.941  -6.802  0.00  0.00     0.051 C 
HETATM   21  C   UNK     0      10.686 -11.563  -7.338  0.00  0.00     0.115 C 
HETATM   22  C   UNK     0      10.612 -12.768  -6.429  0.00  0.00     0.022 A 
HETATM   23  N   UNK     0      11.395 -13.069  -5.385  0.00  0.00    -0.361 N 
HETATM   24  C   UNK     0      10.884 -14.157  -4.772  0.00  0.00     0.021 A 
HETATM   25  C   UNK     0       9.750 -14.572  -5.445  0.00  0.00    -0.031 A 
HETATM   26  C   UNK     0       8.858 -15.763  -5.164  0.00  0.00     0.051 C 
HETATM   27  C   UNK     0       9.556 -13.699  -6.509  0.00  0.00    -0.027 A 
HETATM   28  C   UNK     0      11.369 -14.817  -3.493  0.00  0.00     0.115 C 
HETATM   29  H   UNK     0      12.800 -12.337  -2.799  0.00  0.00     0.165 HD
HETATM   30  H   UNK     0      10.343 -10.011  -2.551  0.00  0.00     0.165 HD
HETATM   31  H   UNK     0       9.959 -10.267  -4.776  0.00  0.00     0.165 HD
HETATM   32  H   UNK     0      12.341 -12.542  -5.095  0.00  0.00     0.165 HD
ENDROOT
BRANCH   6  33
HETATM   33  C   UNK     0      10.017 -12.951   1.002  0.00  0.00     0.051 C 
BRANCH  33  34
HETATM   34  C   UNK     0      10.970 -13.186   2.150  0.00  0.00     0.114 C 
BRANCH  34  35
HETATM   35  C   UNK     0      10.603 -12.233   3.237  0.00  0.00     0.139 C 
HETATM   36  O   UNK     0      10.619 -10.986   3.023  0.00  0.00    -0.650 OA
BRANCH  35  37
HETATM   37  O   UNK     0      10.230 -12.654   4.507  0.00  0.00    -0.776 OA
HETATM   38  H   UNK     0       9.871 -13.579   4.680  0.00  0.00     0.167 HD
ENDBRANCH  35  37
ENDBRANCH  34  35
ENDBRANCH  33  34
ENDBRANCH   6  33
BRANCH  27  39
HETATM   39  C   UNK     0       8.466 -13.869  -7.508  0.00  0.00     0.051 C 
BRANCH  39  40
HETATM   40  C   UNK     0       8.834 -14.174  -8.891  0.00  0.00     0.114 C 
BRANCH  40  41
HETATM   41  C   UNK     0       8.742 -13.192  -9.947  0.00  0.00     0.139 C 
HETATM   42  O   UNK     0       7.953 -12.237  -9.927  0.00  0.00    -0.650 OA
BRANCH  41  43
HETATM   43  O   UNK     0       9.596 -13.314 -11.080  0.00  0.00    -0.776 OA
HETATM   44  H   UNK     0       9.110 -13.412 -11.963  0.00  0.00     0.167 HD
ENDBRANCH  41  43
ENDBRANCH  40  41
ENDBRANCH  39  40
ENDBRANCH  27  39
BRANCH  11  45
HETATM   45  C   UNK     0      13.649  -6.612  -2.426  0.00  0.00     0.051 C 
BRANCH  45  46
HETATM   46  C   UNK     0      15.074  -6.743  -2.027  0.00  0.00     0.114 C 
BRANCH  46  47
HETATM   47  C   UNK     0      15.759  -5.477  -2.417  0.00  0.00     0.139 C 
HETATM   48  O   UNK     0      15.284  -4.402  -2.026  0.00  0.00    -0.650 OA
BRANCH  47  49
HETATM   49  O   UNK     0      16.891  -5.501  -3.192  0.00  0.00    -0.776 OA
HETATM   50  H   UNK     0      16.929  -6.005  -4.086  0.00  0.00     0.167 HD
ENDBRANCH  47  49
ENDBRANCH  46  47
ENDBRANCH  45  46
ENDBRANCH  11  45
BRANCH  18  51
HETATM   51  C   UNK     0      12.390  -9.344  -8.728  0.00  0.00     0.051 C 
BRANCH  51  52
HETATM   52  C   UNK     0      11.421  -8.626  -9.656  0.00  0.00     0.114 C 
BRANCH  52  53
HETATM   53  C   UNK     0      11.197  -9.378 -10.905  0.00  0.00     0.139 C 
HETATM   54  O   UNK     0      11.853  -9.103 -11.923  0.00  0.00    -0.650 OA
BRANCH  53  55
HETATM   55  O   UNK     0      10.258 -10.380 -10.936  0.00  0.00    -0.776 OA
HETATM   56  H   UNK     0       9.943 -10.861 -11.746  0.00  0.00     0.167 HD
ENDBRANCH  53  55
ENDBRANCH  52  53
ENDBRANCH  51  52
ENDBRANCH  18  51
TORSDOF 16
ENDMDL
MODEL 2
REMARK VINA RESULT:     -10.1      2.410      7.025
REMARK  16 active torsions:
REMARK  status: ('A' for Active; 'I' for Inactive)
REMARK    1  A    between atoms: C_6  and  C_7 
REMARK    2  A    between atoms: C_7  and  C_8 
REMARK    3  A    between atoms: C_8  and  C_9 
REMARK    4  A    between atoms: C_9  and  O_11 
REMARK    5  A    between atoms: C_16  and  C_17 
REMARK    6  A    between atoms: C_17  and  C_18 
REMARK    7  A    between atoms: C_18  and  C_19 
REMARK    8  A    between atoms: C_19  and  O_21 
REMARK    9  A    between atoms: C_28  and  C_29 
REMARK   10  A    between atoms: C_29  and  C_30 
REMARK   11  A    between atoms: C_30  and  C_31 
REMARK   12  A    between atoms: C_31  and  O_33 
REMARK   13  A    between atoms: C_42  and  C_43 
REMARK   14  A    between atoms: C_43  and  C_44 
REMARK   15  A    between atoms: C_44  and  C_45 
REMARK   16  A    between atoms: C_45  and  O_47 
ROOT
HETATM    1  C   UNK     0      13.648  -7.107  -2.431  0.00  0.00     0.051 C 
HETATM    2  C   UNK     0      12.740  -8.300  -2.210  0.00  0.00    -0.031 A 
HETATM    3  C   UNK     0      11.604  -8.680  -2.906  0.00  0.00     0.021 A 
HETATM    4  N   UNK     0      11.094  -9.800  -2.339  0.00  0.00    -0.361 N 
HETATM    5  C   UNK     0      11.886 -10.145  -1.303  0.00  0.00     0.022 A 
HETATM    6  C   UNK     0      12.924  -9.227  -1.192  0.00  0.00    -0.027 A 
HETATM    7  C   UNK     0      11.817 -11.346  -0.412  0.00  0.00     0.115 C 
HETATM    8  C   UNK     0      11.527 -12.677  -1.083  0.00  0.00     0.021 A 
HETATM    9  N   UNK     0      11.926 -13.111  -2.288  0.00  0.00    -0.361 N 
HETATM   10  C   UNK     0      11.356 -14.314  -2.511  0.00  0.00     0.022 A 
HETATM   11  C   UNK     0      10.576 -14.669  -1.415  0.00  0.00    -0.027 A 
HETATM   12  C   UNK     0      10.679 -13.642  -0.511  0.00  0.00    -0.031 A 
HETATM   13  C   UNK     0       9.998 -13.594   0.838  0.00  0.00     0.051 C 
HETATM   14  C   UNK     0      11.481 -15.149  -3.782  0.00  0.00     0.115 C 
HETATM   15  C   UNK     0      10.950 -14.458  -5.027  0.00  0.00     0.021 A 
HETATM   16  N   UNK     0      11.350 -13.283  -5.549  0.00  0.00    -0.361 N 
HETATM   17  C   UNK     0      10.588 -12.990  -6.605  0.00  0.00     0.022 A 
HETATM   18  C   UNK     0       9.653 -14.028  -6.786  0.00  0.00    -0.027 A 
HETATM   19  C   UNK     0       9.891 -14.942  -5.793  0.00  0.00    -0.031 A 
HETATM   20  C   UNK     0       9.124 -16.243  -5.641  0.00  0.00     0.051 C 
HETATM   21  C   UNK     0      10.580 -11.762  -7.487  0.00  0.00     0.115 C 
HETATM   22  C   UNK     0      10.911 -10.437  -6.842  0.00  0.00     0.022 A 
HETATM   23  N   UNK     0      10.530  -9.981  -5.641  0.00  0.00    -0.361 N 
HETATM   24  C   UNK     0      11.171  -8.818  -5.408  0.00  0.00     0.021 A 
HETATM   25  C   UNK     0      11.977  -8.513  -6.488  0.00  0.00    -0.031 A 
HETATM   26  C   UNK     0      12.854  -7.298  -6.711  0.00  0.00     0.051 C 
HETATM   27  C   UNK     0      11.827  -9.535  -7.419  0.00  0.00    -0.027 A 
HETATM   28  C   UNK     0      11.135  -7.973  -4.146  0.00  0.00     0.115 C 
HETATM   29  H   UNK     0      10.155 -10.315  -2.650  0.00  0.00     0.165 HD
HETATM   30  H   UNK     0      12.651 -12.593  -2.963  0.00  0.00     0.165 HD
HETATM   31  H   UNK     0      12.219 -12.670  -5.193  0.00  0.00     0.165 HD
HETATM   32  H   UNK     0       9.771 -10.454  -4.965  0.00  0.00     0.165 HD
ENDROOT
BRANCH   6  33
HETATM   33  C   UNK     0      14.061  -9.162  -0.205  0.00  0.00     0.051 C 
BRANCH  33  34
HETATM   34  C   UNK     0      13.585  -8.626   1.125  0.00  0.00     0.114 C 
BRANCH  34  35
HETATM   35  C   UNK     0      14.071  -9.559   2.182  0.00  0.00     0.139 C 
HETATM   36  O   UNK     0      13.434 -10.623   2.434  0.00  0.00    -0.650 OA
BRANCH  35  37
HETATM   37  O   UNK     0      15.220  -9.317   2.925  0.00  0.00    -0.776 OA
HETATM   38  H   UNK     0      15.402  -8.422   3.351  0.00  0.00     0.167 HD
ENDBRANCH  35  37
ENDBRANCH  34  35
ENDBRANCH  33  34
ENDBRANCH   6  33
BRANCH  27  39
HETATM   39  C   UNK     0      12.488  -9.520  -8.752  0.00  0.00     0.051 C 
BRANCH  39  40
HETATM   40  C   UNK     0      11.644  -9.538  -9.946  0.00  0.00     0.114 C 
BRANCH  40  41
HETATM   41  C   UNK     0      11.253 -10.770 -10.595  0.00  0.00     0.139 C 
HETATM   42  O   UNK     0      10.119 -10.974 -11.048  0.00  0.00    -0.650 OA
BRANCH  41  43
HETATM   43  O   UNK     0      12.212 -11.814 -10.730  0.00  0.00    -0.776 OA
HETATM   44  H   UNK     0      12.885 -11.672 -11.473  0.00  0.00     0.167 HD
ENDBRANCH  41  43
ENDBRANCH  40  41
ENDBRANCH  39  40
ENDBRANCH  27  39
BRANCH  11  45
HETATM   45  C   UNK     0       9.761 -15.917  -1.204  0.00  0.00     0.051 C 
BRANCH  45  46
HETATM   46  C   UNK     0      10.403 -17.154  -1.717  0.00  0.00     0.114 C 
BRANCH  46  47
HETATM   47  C   UNK     0       9.319 -18.151  -1.949  0.00  0.00     0.139 C 
HETATM   48  O   UNK     0       8.526 -18.389  -1.027  0.00  0.00    -0.650 OA
BRANCH  47  49
HETATM   49  O   UNK     0       9.202 -18.794  -3.155  0.00  0.00    -0.776 OA
HETATM   50  H   UNK     0       9.529 -19.758  -3.293  0.00  0.00     0.167 HD
ENDBRANCH  47  49
ENDBRANCH  46  47
ENDBRANCH  45  46
ENDBRANCH  11  45
BRANCH  18  51
HETATM   51  C   UNK     0       8.603 -14.153  -7.860  0.00  0.00     0.051 C 
BRANCH  51  52
HETATM   52  C   UNK     0       7.259 -14.106  -7.150  0.00  0.00     0.114 C 
BRANCH  52  53
HETATM   53  C   UNK     0       6.392 -15.235  -7.539  0.00  0.00     0.139 C 
HETATM   54  O   UNK     0       5.379 -15.500  -6.871  0.00  0.00    -0.650 OA
BRANCH  53  55
HETATM   55  O   UNK     0       6.713 -15.990  -8.640  0.00  0.00    -0.776 OA
HETATM   56  H   UNK     0       7.523 -15.885  -9.205  0.00  0.00     0.167 HD
ENDBRANCH  53  55
ENDBRANCH  52  53
ENDBRANCH  51  52
ENDBRANCH  18  51
TORSDOF 16
ENDMDL
MODEL 3
REMARK VINA RESULT:      -9.3      2.942      7.901
REMARK  16 active torsions:
REMARK  status: ('A' for Active; 'I' for Inactive)
REMARK    1  A    between atoms: C_6  and  C_7 
REMARK    2  A    between atoms: C_7  and  C_8 
REMARK    3  A    between atoms: C_8  and  C_9 
REMARK    4  A    between atoms: C_9  and  O_11 
REMARK    5  A    between atoms: C_16  and  C_17 
REMARK    6  A    between atoms: C_17  and  C_18 
REMARK    7  A    between atoms: C_18  and  C_19 
REMARK    8  A    between atoms: C_19  and  O_21 
REMARK    9  A    between atoms: C_28  and  C_29 
REMARK   10  A    between atoms: C_29  and  C_30 
REMARK   11  A    between atoms: C_30  and  C_31 
REMARK   12  A    between atoms: C_31  and  O_33 
REMARK   13  A    between atoms: C_42  and  C_43 
REMARK   14  A    between atoms: C_43  and  C_44 
REMARK   15  A    between atoms: C_44  and  C_45 
REMARK   16  A    between atoms: C_45  and  O_47 
ROOT
HETATM    1  C   UNK     0      10.430 -14.882  -0.955  0.00  0.00     0.051 C 
HETATM    2  C   UNK     0       9.918 -14.345  -2.276  0.00  0.00    -0.031 A 
HETATM    3  C   UNK     0       9.471 -13.073  -2.595  0.00  0.00     0.021 A 
HETATM    4  N   UNK     0       9.078 -13.055  -3.891  0.00  0.00    -0.361 N 
HETATM    5  C   UNK     0       9.273 -14.286  -4.407  0.00  0.00     0.022 A 
HETATM    6  C   UNK     0       9.795 -15.119  -3.423  0.00  0.00    -0.027 A 
HETATM    7  C   UNK     0       9.090 -14.769  -5.812  0.00  0.00     0.115 C 
HETATM    8  C   UNK     0       9.579 -13.850  -6.918  0.00  0.00     0.021 A 
HETATM    9  N   UNK     0      10.651 -13.043  -6.922  0.00  0.00    -0.361 N 
HETATM   10  C   UNK     0      10.645 -12.343  -8.076  0.00  0.00     0.022 A 
HETATM   11  C   UNK     0       9.543 -12.717  -8.841  0.00  0.00    -0.027 A 
HETATM   12  C   UNK     0       8.868 -13.666  -8.117  0.00  0.00    -0.031 A 
HETATM   13  C   UNK     0       7.602 -14.365  -8.560  0.00  0.00     0.051 C 
HETATM   14  C   UNK     0      11.642 -11.261  -8.479  0.00  0.00     0.115 C 
HETATM   15  C   UNK     0      11.670 -10.067  -7.539  0.00  0.00     0.021 A 
HETATM   16  N   UNK     0      11.934 -10.067  -6.219  0.00  0.00    -0.361 N 
HETATM   17  C   UNK     0      11.788  -8.829  -5.742  0.00  0.00     0.022 A 
HETATM   18  C   UNK     0      11.420  -7.979  -6.804  0.00  0.00    -0.027 A 
HETATM   19  C   UNK     0      11.351  -8.767  -7.924  0.00  0.00    -0.031 A 
HETATM   20  C   UNK     0      11.018  -8.239  -9.308  0.00  0.00     0.051 C 
HETATM   21  C   UNK     0      11.898  -8.314  -4.325  0.00  0.00     0.115 C 
HETATM   22  C   UNK     0      11.457  -9.235  -3.212  0.00  0.00     0.022 A 
HETATM   23  N   UNK     0      10.397 -10.052  -3.182  0.00  0.00    -0.361 N 
HETATM   24  C   UNK     0      10.466 -10.795  -2.059  0.00  0.00     0.021 A 
HETATM   25  C   UNK     0      11.593 -10.440  -1.343  0.00  0.00    -0.031 A 
HETATM   26  C   UNK     0      12.075 -10.960  -0.005  0.00  0.00     0.051 C 
HETATM   27  C   UNK     0      12.243  -9.443  -2.060  0.00  0.00    -0.027 A 
HETATM   28  C   UNK     0       9.541 -11.922  -1.631  0.00  0.00     0.115 C 
HETATM   29  H   UNK     0       8.629 -12.183  -4.420  0.00  0.00     0.165 HD
HETATM   30  H   UNK     0      11.441 -13.001  -6.133  0.00  0.00     0.165 HD
HETATM   31  H   UNK     0      12.277 -10.950  -5.619  0.00  0.00     0.165 HD
HETATM   32  H   UNK     0       9.565 -10.082  -3.933  0.00  0.00     0.165 HD
ENDROOT
BRANCH   6  33
HETATM   33  C   UNK     0      10.179 -16.576  -3.489  0.00  0.00     0.051 C 
BRANCH  33  34
HETATM   34  C   UNK     0      11.616 -16.731  -3.926  0.00  0.00     0.114 C 
BRANCH  34  35
HETATM   35  C   UNK     0      11.890 -18.192  -4.047  0.00  0.00     0.139 C 
HETATM   36  O   UNK     0      11.092 -18.939  -4.685  0.00  0.00    -0.650 OA
BRANCH  35  37
HETATM   37  O   UNK     0      13.008 -18.794  -3.484  0.00  0.00    -0.776 OA
HETATM   38  H   UNK     0      13.312 -18.586  -2.546  0.00  0.00     0.167 HD
ENDBRANCH  35  37
ENDBRANCH  34  35
ENDBRANCH  33  34
ENDBRANCH   6  33
BRANCH  27  39
HETATM   39  C   UNK     0      13.467  -8.756  -1.566  0.00  0.00     0.051 C 
BRANCH  39  40
HETATM   40  C   UNK     0      14.768  -9.357  -1.861  0.00  0.00     0.114 C 
BRANCH  40  41
HETATM   41  C   UNK     0      15.407 -10.291  -0.962  0.00  0.00     0.139 C 
HETATM   42  O   UNK     0      15.886 -11.373  -1.329  0.00  0.00    -0.650 OA
BRANCH  41  43
HETATM   43  O   UNK     0      15.497  -9.968   0.421  0.00  0.00    -0.776 OA
HETATM   44  H   UNK     0      15.837 -10.721   1.006  0.00  0.00     0.167 HD
ENDBRANCH  41  43
ENDBRANCH  40  41
ENDBRANCH  39  40
ENDBRANCH  27  39
BRANCH  11  45
HETATM   45  C   UNK     0       9.127 -12.218 -10.198  0.00  0.00     0.051 C 
BRANCH  45  46
HETATM   46  C   UNK     0       9.573 -13.078 -11.324  0.00  0.00     0.114 C 
BRANCH  46  47
HETATM   47  C   UNK     0       8.347 -13.597 -11.996  0.00  0.00     0.139 C 
HETATM   48  O   UNK     0       7.243 -13.193 -11.607  0.00  0.00    -0.650 OA
BRANCH  47  49
HETATM   49  O   UNK     0       8.439 -14.504 -13.021  0.00  0.00    -0.776 OA
HETATM   50  H   UNK     0       9.090 -15.297 -12.991  0.00  0.00     0.167 HD
ENDBRANCH  47  49
ENDBRANCH  46  47
ENDBRANCH  45  46
ENDBRANCH  11  45
BRANCH  18  51
HETATM   51  C   UNK     0      11.169  -6.494  -6.758  0.00  0.00     0.051 C 
BRANCH  51  52
HETATM   52  C   UNK     0      12.418  -5.834  -7.325  0.00  0.00     0.114 C 
BRANCH  52  53
HETATM   53  C   UNK     0      12.101  -4.934  -8.450  0.00  0.00     0.139 C 
HETATM   54  O   UNK     0      12.869  -4.002  -8.736  0.00  0.00    -0.650 OA
BRANCH  53  55
HETATM   55  O   UNK     0      10.951  -5.132  -9.175  0.00  0.00    -0.776 OA
HETATM   56  H   UNK     0      10.714  -4.682 -10.028  0.00  0.00     0.167 HD
ENDBRANCH  53  55
ENDBRANCH  52  53
ENDBRANCH  51  52
ENDBRANCH  18  51
TORSDOF 16
ENDMDL
MODEL 4
REMARK VINA RESULT:      -9.1      5.298     10.483
REMARK  16 active torsions:
REMARK  status: ('A' for Active; 'I' for Inactive)
REMARK    1  A    between atoms: C_6  and  C_7 
REMARK    2  A    between atoms: C_7  and  C_8 
REMARK    3  A    between atoms: C_8  and  C_9 
REMARK    4  A    between atoms: C_9  and  O_11 
REMARK    5  A    between atoms: C_16  and  C_17 
REMARK    6  A    between atoms: C_17  and  C_18 
REMARK    7  A    between atoms: C_18  and  C_19 
REMARK    8  A    between atoms: C_19  and  O_21 
REMARK    9  A    between atoms: C_28  and  C_29 
REMARK   10  A    between atoms: C_29  and  C_30 
REMARK   11  A    between atoms: C_30  and  C_31 
REMARK   12  A    between atoms: C_31  and  O_33 
REMARK   13  A    between atoms: C_42  and  C_43 
REMARK   14  A    between atoms: C_43  and  C_44 
REMARK   15  A    between atoms: C_44  and  C_45 
REMARK   16  A    between atoms: C_45  and  O_47 
ROOT
HETATM    1  C   UNK     0       9.735 -15.056  -2.415  0.00  0.00     0.051 C 
HETATM    2  C   UNK     0       9.698 -15.102  -3.929  0.00  0.00    -0.031 A 
HETATM    3  C   UNK     0       9.803 -16.192  -4.778  0.00  0.00     0.021 A 
HETATM    4  N   UNK     0       9.748 -15.760  -6.060  0.00  0.00    -0.361 N 
HETATM    5  C   UNK     0       9.603 -14.419  -6.046  0.00  0.00     0.022 A 
HETATM    6  C   UNK     0       9.571 -13.974  -4.729  0.00  0.00    -0.027 A 
HETATM    7  C   UNK     0       9.401 -13.471  -7.187  0.00  0.00     0.115 C 
HETATM    8  C   UNK     0       8.438 -13.911  -8.276  0.00  0.00     0.021 A 
HETATM    9  N   UNK     0       7.304 -14.618  -8.153  0.00  0.00    -0.361 N 
HETATM   10  C   UNK     0       6.822 -14.856  -9.392  0.00  0.00     0.022 A 
HETATM   11  C   UNK     0       7.664 -14.278 -10.338  0.00  0.00    -0.027 A 
HETATM   12  C   UNK     0       8.684 -13.681  -9.641  0.00  0.00    -0.031 A 
HETATM   13  C   UNK     0       9.836 -12.921 -10.259  0.00  0.00     0.051 C 
HETATM   14  C   UNK     0       5.584 -15.679  -9.734  0.00  0.00     0.115 C 
HETATM   15  C   UNK     0       5.664 -17.129  -9.285  0.00  0.00     0.021 A 
HETATM   16  N   UNK     0       5.843 -17.592  -8.033  0.00  0.00    -0.361 N 
HETATM   17  C   UNK     0       5.928 -18.924  -8.067  0.00  0.00     0.022 A 
HETATM   18  C   UNK     0       5.789 -19.349  -9.403  0.00  0.00    -0.027 A 
HETATM   19  C   UNK     0       5.623 -18.216 -10.155  0.00  0.00    -0.031 A 
HETATM   20  C   UNK     0       5.400 -18.225 -11.657  0.00  0.00     0.051 C 
HETATM   21  C   UNK     0       6.197 -19.908  -6.952  0.00  0.00     0.115 C 
HETATM   22  C   UNK     0       7.119 -19.468  -5.839  0.00  0.00     0.022 A 
HETATM   23  N   UNK     0       8.252 -18.760  -5.932  0.00  0.00    -0.361 N 
HETATM   24  C   UNK     0       8.672 -18.468  -4.684  0.00  0.00     0.021 A 
HETATM   25  C   UNK     0       7.793 -19.010  -3.766  0.00  0.00    -0.031 A 
HETATM   26  C   UNK     0       7.861 -18.986  -2.253  0.00  0.00     0.051 C 
HETATM   27  C   UNK     0       6.791 -19.655  -4.481  0.00  0.00    -0.027 A 
HETATM   28  C   UNK     0       9.857 -17.609  -4.280  0.00  0.00     0.115 C 
HETATM   29  H   UNK     0       9.853 -16.401  -6.966  0.00  0.00     0.165 HD
HETATM   30  H   UNK     0       6.814 -14.908  -7.192  0.00  0.00     0.165 HD
HETATM   31  H   UNK     0       5.862 -16.970  -7.101  0.00  0.00     0.165 HD
HETATM   32  H   UNK     0       8.790 -18.496  -6.879  0.00  0.00     0.165 HD
ENDROOT
BRANCH   6  33
HETATM   33  C   UNK     0       9.433 -12.577  -4.180  0.00  0.00     0.051 C 
BRANCH  33  34
HETATM   34  C   UNK     0      10.789 -11.981  -3.885  0.00  0.00     0.114 C 
BRANCH  34  35
HETATM   35  C   UNK     0      10.954 -10.788  -4.764  0.00  0.00     0.139 C 
HETATM   36  O   UNK     0      11.461 -10.911  -5.917  0.00  0.00    -0.650 OA
BRANCH  35  37
HETATM   37  O   UNK     0      10.567  -9.511  -4.375  0.00  0.00    -0.776 OA
HETATM   38  H   UNK     0      11.121  -8.697  -4.586  0.00  0.00     0.167 HD
ENDBRANCH  35  37
ENDBRANCH  34  35
ENDBRANCH  33  34
ENDBRANCH   6  33
BRANCH  27  39
HETATM   39  C   UNK     0       5.696 -20.423  -3.829  0.00  0.00     0.051 C 
BRANCH  39  40
HETATM   40  C   UNK     0       4.417 -19.751  -3.600  0.00  0.00     0.114 C 
BRANCH  40  41
HETATM   41  C   UNK     0       3.536 -19.381  -4.685  0.00  0.00     0.139 C 
HETATM   42  O   UNK     0       3.731 -18.403  -5.420  0.00  0.00    -0.650 OA
BRANCH  41  43
HETATM   43  O   UNK     0       2.378 -20.170  -4.935  0.00  0.00    -0.776 OA
HETATM   44  H   UNK     0       1.771 -20.289  -4.133  0.00  0.00     0.167 HD
ENDBRANCH  41  43
ENDBRANCH  40  41
ENDBRANCH  39  40
ENDBRANCH  27  39
BRANCH  11  45
HETATM   45  C   UNK     0       7.533 -14.272 -11.837  0.00  0.00     0.051 C 
BRANCH  45  46
HETATM   46  C   UNK     0       6.193 -13.859 -12.327  0.00  0.00     0.114 C 
BRANCH  46  47
HETATM   47  C   UNK     0       5.918 -14.635 -13.570  0.00  0.00     0.139 C 
HETATM   48  O   UNK     0       5.003 -14.257 -14.314  0.00  0.00    -0.650 OA
BRANCH  47  49
HETATM   49  O   UNK     0       6.661 -15.746 -13.883  0.00  0.00    -0.776 OA
HETATM   50  H   UNK     0       6.226 -16.620 -14.203  0.00  0.00     0.167 HD
ENDBRANCH  47  49
ENDBRANCH  46  47
ENDBRANCH  45  46
ENDBRANCH  11  45
BRANCH  18  51
HETATM   51  C   UNK     0       5.792 -20.760  -9.930  0.00  0.00     0.051 C 
BRANCH  51  52
HETATM   52  C   UNK     0       4.336 -21.197  -9.988  0.00  0.00     0.114 C 
BRANCH  52  53
HETATM   53  C   UNK     0       3.888 -21.788  -8.712  0.00  0.00     0.139 C 
HETATM   54  O   UNK     0       4.270 -22.924  -8.386  0.00  0.00    -0.650 OA
BRANCH  53  55
HETATM   55  O   UNK     0       3.046 -21.077  -7.892  0.00  0.00    -0.776 OA
HETATM   56  H   UNK     0       3.288 -20.272  -7.364  0.00  0.00     0.167 HD
ENDBRANCH  53  55
ENDBRANCH  52  53
ENDBRANCH  51  52
ENDBRANCH  18  51
TORSDOF 16
ENDMDL
MODEL 5
REMARK VINA RESULT:      -8.9      2.445      7.041
REMARK  16 active torsions:
REMARK  status: ('A' for Active; 'I' for Inactive)
REMARK    1  A    between atoms: C_6  and  C_7 
REMARK    2  A    between atoms: C_7  and  C_8 
REMARK    3  A    between atoms: C_8  and  C_9 
REMARK    4  A    between atoms: C_9  and  O_11 
REMARK    5  A    between atoms: C_16  and  C_17 
REMARK    6  A    between atoms: C_17  and  C_18 
REMARK    7  A    between atoms: C_18  and  C_19 
REMARK    8  A    between atoms: C_19  and  O_21 
REMARK    9  A    between atoms: C_28  and  C_29 
REMARK   10  A    between atoms: C_29  and  C_30 
REMARK   11  A    between atoms: C_30  and  C_31 
REMARK   12  A    between atoms: C_31  and  O_33 
REMARK   13  A    between atoms: C_42  and  C_43 
REMARK   14  A    between atoms: C_43  and  C_44 
REMARK   15  A    between atoms: C_44  and  C_45 
REMARK   16  A    between atoms: C_45  and  O_47 
ROOT
HETATM    1  C   UNK     0      13.678  -7.104  -2.384  0.00  0.00     0.051 C 
HETATM    2  C   UNK     0      12.748  -8.290  -2.224  0.00  0.00    -0.031 A 
HETATM    3  C   UNK     0      11.608  -8.617  -2.941  0.00  0.00     0.021 A 
HETATM    4  N   UNK     0      11.076  -9.752  -2.429  0.00  0.00    -0.361 N 
HETATM    5  C   UNK     0      11.857 -10.160  -1.408  0.00  0.00     0.022 A 
HETATM    6  C   UNK     0      12.911  -9.267  -1.250  0.00  0.00    -0.027 A 
HETATM    7  C   UNK     0      11.763 -11.400  -0.574  0.00  0.00     0.115 C 
HETATM    8  C   UNK     0      11.452 -12.693  -1.308  0.00  0.00     0.021 A 
HETATM    9  N   UNK     0      11.850 -13.077  -2.531  0.00  0.00    -0.361 N 
HETATM   10  C   UNK     0      11.260 -14.258  -2.812  0.00  0.00     0.022 A 
HETATM   11  C   UNK     0      10.467 -14.650  -1.737  0.00  0.00    -0.027 A 
HETATM   12  C   UNK     0      10.584 -13.669  -0.786  0.00  0.00    -0.031 A 
HETATM   13  C   UNK     0       9.898 -13.672   0.562  0.00  0.00     0.051 C 
HETATM   14  C   UNK     0      11.376 -15.034  -4.121  0.00  0.00     0.115 C 
HETATM   15  C   UNK     0      10.863 -14.276  -5.334  0.00  0.00     0.021 A 
HETATM   16  N   UNK     0      11.286 -13.085  -5.798  0.00  0.00    -0.361 N 
HETATM   17  C   UNK     0      10.535 -12.729  -6.842  0.00  0.00     0.022 A 
HETATM   18  C   UNK     0       9.582 -13.741  -7.076  0.00  0.00    -0.027 A 
HETATM   19  C   UNK     0       9.800 -14.705  -6.126  0.00  0.00    -0.031 A 
HETATM   20  C   UNK     0       9.009 -15.998  -6.039  0.00  0.00     0.051 C 
HETATM   21  C   UNK     0      10.553 -11.462  -7.666  0.00  0.00     0.115 C 
HETATM   22  C   UNK     0      10.904 -10.175  -6.958  0.00  0.00     0.022 A 
HETATM   23  N   UNK     0      10.526  -9.768  -5.739  0.00  0.00    -0.361 N 
HETATM   24  C   UNK     0      11.186  -8.629  -5.448  0.00  0.00     0.021 A 
HETATM   25  C   UNK     0      12.002  -8.288  -6.510  0.00  0.00    -0.031 A 
HETATM   26  C   UNK     0      12.902  -7.081  -6.672  0.00  0.00     0.051 C 
HETATM   27  C   UNK     0      11.839  -9.262  -7.488  0.00  0.00    -0.027 A 
HETATM   28  C   UNK     0      11.158  -7.844  -4.148  0.00  0.00     0.115 C 
HETATM   29  H   UNK     0      10.130 -10.236  -2.768  0.00  0.00     0.165 HD
HETATM   30  H   UNK     0      12.587 -12.541  -3.178  0.00  0.00     0.165 HD
HETATM   31  H   UNK     0      12.164 -12.505  -5.411  0.00  0.00     0.165 HD
HETATM   32  H   UNK     0       9.755 -10.259  -5.089  0.00  0.00     0.165 HD
ENDROOT
BRANCH   6  33
HETATM   33  C   UNK     0      14.044  -9.269  -0.255  0.00  0.00     0.051 C 
BRANCH  33  34
HETATM   34  C   UNK     0      15.369  -9.454  -0.955  0.00  0.00     0.114 C 
BRANCH  34  35
HETATM   35  C   UNK     0      15.320 -10.762  -1.668  0.00  0.00     0.139 C 
HETATM   36  O   UNK     0      15.531 -11.839  -1.038  0.00  0.00    -0.650 OA
BRANCH  35  37
HETATM   37  O   UNK     0      15.043 -10.866  -3.026  0.00  0.00    -0.776 OA
HETATM   38  H   UNK     0      14.273 -10.376  -3.454  0.00  0.00     0.167 HD
ENDBRANCH  35  37
ENDBRANCH  34  35
ENDBRANCH  33  34
ENDBRANCH   6  33
BRANCH  27  39
HETATM   39  C   UNK     0      12.507  -9.197  -8.817  0.00  0.00     0.051 C 
BRANCH  39  40
HETATM   40  C   UNK     0      11.700  -9.440 -10.012  0.00  0.00     0.114 C 
BRANCH  40  41
HETATM   41  C   UNK     0      11.373  -8.387 -10.948  0.00  0.00     0.139 C 
HETATM   42  O   UNK     0      11.398  -8.533 -12.177  0.00  0.00    -0.650 OA
BRANCH  41  43
HETATM   43  O   UNK     0      10.999  -7.108 -10.446  0.00  0.00    -0.776 OA
HETATM   44  H   UNK     0      10.025  -7.031 -10.179  0.00  0.00     0.167 HD
ENDBRANCH  41  43
ENDBRANCH  40  41
ENDBRANCH  39  40
ENDBRANCH  27  39
BRANCH  11  45
HETATM   45  C   UNK     0       9.630 -15.892  -1.588  0.00  0.00     0.051 C 
BRANCH  45  46
HETATM   46  C   UNK     0      10.404 -17.157  -1.665  0.00  0.00     0.114 C 
BRANCH  46  47
HETATM   47  C   UNK     0       9.629 -18.097  -2.525  0.00  0.00     0.139 C 
HETATM   48  O   UNK     0      10.061 -18.357  -3.657  0.00  0.00    -0.650 OA
BRANCH  47  49
HETATM   49  O   UNK     0       8.462 -18.662  -2.075  0.00  0.00    -0.776 OA
HETATM   50  H   UNK     0       8.350 -19.678  -1.981  0.00  0.00     0.167 HD
ENDBRANCH  47  49
ENDBRANCH  46  47
ENDBRANCH  45  46
ENDBRANCH  11  45
BRANCH  18  51
HETATM   51  C   UNK     0       8.536 -13.797  -8.159  0.00  0.00     0.051 C 
BRANCH  51  52
HETATM   52  C   UNK     0       9.230 -13.366  -9.443  0.00  0.00     0.114 C 
BRANCH  52  53
HETATM   53  C   UNK     0       8.361 -13.544 -10.623  0.00  0.00     0.139 C 
HETATM   54  O   UNK     0       7.265 -12.964 -10.680  0.00  0.00    -0.650 OA
BRANCH  53  55
HETATM   55  O   UNK     0       8.771 -14.355 -11.653  0.00  0.00    -0.776 OA
HETATM   56  H   UNK     0       8.845 -14.094 -12.608  0.00  0.00     0.167 HD
ENDBRANCH  53  55
ENDBRANCH  52  53
ENDBRANCH  51  52
ENDBRANCH  18  51
TORSDOF 16
ENDMDL
MODEL 6
REMARK VINA RESULT:      -8.5      3.520      9.403
REMARK  16 active torsions:
REMARK  status: ('A' for Active; 'I' for Inactive)
REMARK    1  A    between atoms: C_6  and  C_7 
REMARK    2  A    between atoms: C_7  and  C_8 
REMARK    3  A    between atoms: C_8  and  C_9 
REMARK    4  A    between atoms: C_9  and  O_11 
REMARK    5  A    between atoms: C_16  and  C_17 
REMARK    6  A    between atoms: C_17  and  C_18 
REMARK    7  A    between atoms: C_18  and  C_19 
REMARK    8  A    between atoms: C_19  and  O_21 
REMARK    9  A    between atoms: C_28  and  C_29 
REMARK   10  A    between atoms: C_29  and  C_30 
REMARK   11  A    between atoms: C_30  and  C_31 
REMARK   12  A    between atoms: C_31  and  O_33 
REMARK   13  A    between atoms: C_42  and  C_43 
REMARK   14  A    between atoms: C_43  and  C_44 
REMARK   15  A    between atoms: C_44  and  C_45 
REMARK   16  A    between atoms: C_45  and  O_47 
ROOT
HETATM    1  C   UNK     0      11.858 -10.119  -2.951  0.00  0.00     0.051 C 
HETATM    2  C   UNK     0      11.702 -10.822  -4.284  0.00  0.00    -0.031 A 
HETATM    3  C   UNK     0      12.044 -12.117  -4.641  0.00  0.00     0.021 A 
HETATM    4  N   UNK     0      11.752 -12.305  -5.950  0.00  0.00    -0.361 N 
HETATM    5  C   UNK     0      11.223 -11.161  -6.433  0.00  0.00     0.022 A 
HETATM    6  C   UNK     0      11.180 -10.211  -5.417  0.00  0.00    -0.027 A 
HETATM    7  C   UNK     0      10.653 -10.873  -7.786  0.00  0.00     0.115 C 
HETATM    8  C   UNK     0       9.767 -11.945  -8.395  0.00  0.00     0.021 A 
HETATM    9  N   UNK     0       8.905 -12.768  -7.778  0.00  0.00    -0.361 N 
HETATM   10  C   UNK     0       8.406 -13.619  -8.698  0.00  0.00     0.022 A 
HETATM   11  C   UNK     0       8.955 -13.332  -9.945  0.00  0.00    -0.027 A 
HETATM   12  C   UNK     0       9.813 -12.278  -9.761  0.00  0.00    -0.031 A 
HETATM   13  C   UNK     0      10.634 -11.620 -10.847  0.00  0.00     0.051 C 
HETATM   14  C   UNK     0       7.436 -14.768  -8.432  0.00  0.00     0.115 C 
HETATM   15  C   UNK     0       7.977 -15.821  -7.478  0.00  0.00     0.021 A 
HETATM   16  N   UNK     0       8.393 -15.644  -6.210  0.00  0.00    -0.361 N 
HETATM   17  C   UNK     0       8.860 -16.802  -5.737  0.00  0.00     0.022 A 
HETATM   18  C   UNK     0       8.733 -17.782  -6.741  0.00  0.00    -0.027 A 
HETATM   19  C   UNK     0       8.177 -17.155  -7.826  0.00  0.00    -0.031 A 
HETATM   20  C   UNK     0       7.834 -17.862  -9.125  0.00  0.00     0.051 C 
HETATM   21  C   UNK     0       9.503 -17.119  -4.406  0.00  0.00     0.115 C 
HETATM   22  C   UNK     0      10.351 -16.044  -3.767  0.00  0.00     0.022 A 
HETATM   23  N   UNK     0      11.215 -15.208  -4.357  0.00  0.00    -0.361 N 
HETATM   24  C   UNK     0      11.640 -14.319  -3.437  0.00  0.00     0.021 A 
HETATM   25  C   UNK     0      11.044 -14.596  -2.222  0.00  0.00    -0.031 A 
HETATM   26  C   UNK     0      11.235 -13.906  -0.887  0.00  0.00     0.051 C 
HETATM   27  C   UNK     0      10.214 -15.696  -2.408  0.00  0.00    -0.027 A 
HETATM   28  C   UNK     0      12.554 -13.125  -3.651  0.00  0.00     0.115 C 
HETATM   29  H   UNK     0      11.958 -13.231  -6.534  0.00  0.00     0.165 HD
HETATM   30  H   UNK     0       8.608 -12.717  -6.701  0.00  0.00     0.165 HD
HETATM   31  H   UNK     0       8.312 -14.695  -5.620  0.00  0.00     0.165 HD
HETATM   32  H   UNK     0      11.566 -15.264  -5.421  0.00  0.00     0.165 HD
ENDROOT
BRANCH   6  33
HETATM   33  C   UNK     0      10.689  -8.786  -5.442  0.00  0.00     0.051 C 
BRANCH  33  34
HETATM   34  C   UNK     0      11.800  -7.844  -5.842  0.00  0.00     0.114 C 
BRANCH  34  35
HETATM   35  C   UNK     0      11.239  -6.463  -5.832  0.00  0.00     0.139 C 
HETATM   36  O   UNK     0      11.220  -5.776  -6.895  0.00  0.00    -0.650 OA
BRANCH  35  37
HETATM   37  O   UNK     0      10.720  -5.873  -4.686  0.00  0.00    -0.776 OA
HETATM   38  H   UNK     0       9.748  -5.622  -4.608  0.00  0.00     0.167 HD
ENDBRANCH  35  37
ENDBRANCH  34  35
ENDBRANCH  33  34
ENDBRANCH   6  33
BRANCH  27  39
HETATM   39  C   UNK     0       9.454 -16.334  -1.299  0.00  0.00     0.051 C 
BRANCH  39  40
HETATM   40  C   UNK     0       9.403 -17.795  -1.243  0.00  0.00     0.114 C 
BRANCH  40  41
HETATM   41  C   UNK     0       8.154 -18.523  -1.250  0.00  0.00     0.139 C 
HETATM   42  O   UNK     0       7.326 -18.469  -0.330  0.00  0.00    -0.650 OA
BRANCH  41  43
HETATM   43  O   UNK     0       7.843 -19.351  -2.365  0.00  0.00    -0.776 OA
HETATM   44  H   UNK     0       7.518 -18.849  -3.183  0.00  0.00     0.167 HD
ENDBRANCH  41  43
ENDBRANCH  40  41
ENDBRANCH  39  40
ENDBRANCH  27  39
BRANCH  11  45
HETATM   45  C   UNK     0       8.695 -14.004 -11.266  0.00  0.00     0.051 C 
BRANCH  45  46
HETATM   46  C   UNK     0       7.366 -13.696 -11.852  0.00  0.00     0.114 C 
BRANCH  46  47
HETATM   47  C   UNK     0       7.176 -14.605 -13.018  0.00  0.00     0.139 C 
HETATM   48  O   UNK     0       7.931 -14.484 -13.993  0.00  0.00    -0.650 OA
BRANCH  47  49
HETATM   49  O   UNK     0       6.186 -15.555 -13.015  0.00  0.00    -0.776 OA
HETATM   50  H   UNK     0       5.265 -15.385 -13.435  0.00  0.00     0.167 HD
ENDBRANCH  47  49
ENDBRANCH  46  47
ENDBRANCH  45  46
ENDBRANCH  11  45
BRANCH  18  51
HETATM   51  C   UNK     0       9.102 -19.240  -6.664  0.00  0.00     0.051 C 
BRANCH  51  52
HETATM   52  C   UNK     0      10.567 -19.289  -6.258  0.00  0.00     0.114 C 
BRANCH  52  53
HETATM   53  C   UNK     0      11.449 -19.552  -7.412  0.00  0.00     0.139 C 
HETATM   54  O   UNK     0      12.567 -20.062  -7.237  0.00  0.00    -0.650 OA
BRANCH  53  55
HETATM   55  O   UNK     0      11.026 -19.227  -8.678  0.00  0.00    -0.776 OA
HETATM   56  H   UNK     0      10.691 -19.862  -9.364  0.00  0.00     0.167 HD
ENDBRANCH  53  55
ENDBRANCH  52  53
ENDBRANCH  51  52
ENDBRANCH  18  51
TORSDOF 16
ENDMDL
MODEL 7
REMARK VINA RESULT:      -8.2     21.261     22.965
REMARK  16 active torsions:
REMARK  status: ('A' for Active; 'I' for Inactive)
REMARK    1  A    between atoms: C_6  and  C_7 
REMARK    2  A    between atoms: C_7  and  C_8 
REMARK    3  A    between atoms: C_8  and  C_9 
REMARK    4  A    between atoms: C_9  and  O_11 
REMARK    5  A    between atoms: C_16  and  C_17 
REMARK    6  A    between atoms: C_17  and  C_18 
REMARK    7  A    between atoms: C_18  and  C_19 
REMARK    8  A    between atoms: C_19  and  O_21 
REMARK    9  A    between atoms: C_28  and  C_29 
REMARK   10  A    between atoms: C_29  and  C_30 
REMARK   11  A    between atoms: C_30  and  C_31 
REMARK   12  A    between atoms: C_31  and  O_33 
REMARK   13  A    between atoms: C_42  and  C_43 
REMARK   14  A    between atoms: C_43  and  C_44 
REMARK   15  A    between atoms: C_44  and  C_45 
REMARK   16  A    between atoms: C_45  and  O_47 
ROOT
HETATM    1  C   UNK     0      -6.410  -4.903   5.753  0.00  0.00     0.051 C 
HETATM    2  C   UNK     0      -7.580  -4.414   4.923  0.00  0.00    -0.031 A 
HETATM    3  C   UNK     0      -7.579  -3.715   3.727  0.00  0.00     0.021 A 
HETATM    4  N   UNK     0      -8.858  -3.460   3.363  0.00  0.00    -0.361 N 
HETATM    5  C   UNK     0      -9.675  -3.989   4.298  0.00  0.00     0.022 A 
HETATM    6  C   UNK     0      -8.908  -4.591   5.290  0.00  0.00    -0.027 A 
HETATM    7  C   UNK     0     -11.169  -4.066   4.323  0.00  0.00     0.115 C 
HETATM    8  C   UNK     0     -11.855  -4.432   3.018  0.00  0.00     0.021 A 
HETATM    9  N   UNK     0     -11.439  -5.280   2.064  0.00  0.00    -0.361 N 
HETATM   10  C   UNK     0     -12.318  -5.225   1.042  0.00  0.00     0.022 A 
HETATM   11  C   UNK     0     -13.334  -4.324   1.349  0.00  0.00    -0.027 A 
HETATM   12  C   UNK     0     -13.048  -3.822   2.593  0.00  0.00    -0.031 A 
HETATM   13  C   UNK     0     -13.885  -2.806   3.339  0.00  0.00     0.051 C 
HETATM   14  C   UNK     0     -12.209  -5.976  -0.282  0.00  0.00     0.115 C 
HETATM   15  C   UNK     0     -10.967  -5.628  -1.087  0.00  0.00     0.021 A 
HETATM   16  N   UNK     0      -9.681  -5.752  -0.707  0.00  0.00    -0.361 N 
HETATM   17  C   UNK     0      -8.892  -5.273  -1.671  0.00  0.00     0.022 A 
HETATM   18  C   UNK     0      -9.701  -4.824  -2.733  0.00  0.00    -0.027 A 
HETATM   19  C   UNK     0     -10.999  -5.053  -2.355  0.00  0.00    -0.031 A 
HETATM   20  C   UNK     0     -12.199  -4.746  -3.231  0.00  0.00     0.051 C 
HETATM   21  C   UNK     0      -7.388  -5.117  -1.707  0.00  0.00     0.115 C 
HETATM   22  C   UNK     0      -6.688  -4.796  -0.408  0.00  0.00     0.022 A 
HETATM   23  N   UNK     0      -7.081  -3.959   0.562  0.00  0.00    -0.361 N 
HETATM   24  C   UNK     0      -6.233  -4.088   1.602  0.00  0.00     0.021 A 
HETATM   25  C   UNK     0      -5.265  -5.023   1.291  0.00  0.00    -0.031 A 
HETATM   26  C   UNK     0      -4.079  -5.478   2.116  0.00  0.00     0.051 C 
HETATM   27  C   UNK     0      -5.534  -5.490   0.009  0.00  0.00    -0.027 A 
HETATM   28  C   UNK     0      -6.321  -3.416   2.961  0.00  0.00     0.115 C 
HETATM   29  H   UNK     0      -9.174  -2.873   2.470  0.00  0.00     0.165 HD
HETATM   30  H   UNK     0     -10.551  -5.956   2.131  0.00  0.00     0.165 HD
HETATM   31  H   UNK     0      -9.321  -6.232   0.240  0.00  0.00     0.165 HD
HETATM   32  H   UNK     0      -7.937  -3.237   0.504  0.00  0.00     0.165 HD
ENDROOT
BRANCH   6  33
HETATM   33  C   UNK     0      -9.336  -5.310   6.544  0.00  0.00     0.051 C 
BRANCH  33  34
HETATM   34  C   UNK     0      -9.366  -4.363   7.720  0.00  0.00     0.114 C 
BRANCH  34  35
HETATM   35  C   UNK     0     -10.751  -4.382   8.272  0.00  0.00     0.139 C 
HETATM   36  O   UNK     0     -11.671  -5.002   7.664  0.00  0.00    -0.650 OA
BRANCH  35  37
HETATM   37  O   UNK     0     -11.095  -3.739   9.455  0.00  0.00    -0.776 OA
HETATM   38  H   UNK     0     -10.401  -3.421  10.112  0.00  0.00     0.167 HD
ENDBRANCH  35  37
ENDBRANCH  34  35
ENDBRANCH  33  34
ENDBRANCH   6  33
BRANCH  27  39
HETATM   39  C   UNK     0      -4.660  -6.463  -0.700  0.00  0.00     0.051 C 
BRANCH  39  40
HETATM   40  C   UNK     0      -3.902  -5.997  -1.861  0.00  0.00     0.114 C 
BRANCH  40  41
HETATM   41  C   UNK     0      -4.190  -6.450  -3.203  0.00  0.00     0.139 C 
HETATM   42  O   UNK     0      -4.345  -7.641  -3.503  0.00  0.00    -0.650 OA
BRANCH  41  43
HETATM   43  O   UNK     0      -4.306  -5.489  -4.247  0.00  0.00    -0.776 OA
HETATM   44  H   UNK     0      -5.194  -5.505  -4.734  0.00  0.00     0.167 HD
ENDBRANCH  41  43
ENDBRANCH  40  41
ENDBRANCH  39  40
ENDBRANCH  27  39
BRANCH  11  45
HETATM   45  C   UNK     0     -14.533  -3.940   0.525  0.00  0.00     0.051 C 
BRANCH  45  46
HETATM   46  C   UNK     0     -14.220  -3.048  -0.621  0.00  0.00     0.114 C 
BRANCH  46  47
HETATM   47  C   UNK     0     -15.500  -2.417  -1.052  0.00  0.00     0.139 C 
HETATM   48  O   UNK     0     -16.563  -2.864  -0.599  0.00  0.00    -0.650 OA
BRANCH  47  49
HETATM   49  O   UNK     0     -15.504  -1.364  -1.932  0.00  0.00    -0.776 OA
HETATM   50  H   UNK     0     -16.373  -0.982  -2.322  0.00  0.00     0.167 HD
ENDBRANCH  47  49
ENDBRANCH  46  47
ENDBRANCH  45  46
ENDBRANCH  11  45
BRANCH  18  51
HETATM   51  C   UNK     0      -9.261  -4.228  -4.045  0.00  0.00     0.051 C 
BRANCH  51  52
HETATM   52  C   UNK     0      -8.987  -5.401  -4.975  0.00  0.00     0.114 C 
BRANCH  52  53
HETATM   53  C   UNK     0      -7.548  -5.551  -5.262  0.00  0.00     0.139 C 
HETATM   54  O   UNK     0      -6.882  -4.569  -5.628  0.00  0.00    -0.650 OA
BRANCH  53  55
HETATM   55  O   UNK     0      -6.952  -6.781  -5.125  0.00  0.00    -0.776 OA
HETATM   56  H   UNK     0      -6.915  -7.493  -5.816  0.00  0.00     0.167 HD
ENDBRANCH  53  55
ENDBRANCH  52  53
ENDBRANCH  51  52
ENDBRANCH  18  51
TORSDOF 16
ENDMDL
MODEL 8
REMARK VINA RESULT:      -7.9     21.006     22.487
REMARK  16 active torsions:
REMARK  status: ('A' for Active; 'I' for Inactive)
REMARK    1  A    between atoms: C_6  and  C_7 
REMARK    2  A    between atoms: C_7  and  C_8 
REMARK    3  A    between atoms: C_8  and  C_9 
REMARK    4  A    between atoms: C_9  and  O_11 
REMARK    5  A    between atoms: C_16  and  C_17 
REMARK    6  A    between atoms: C_17  and  C_18 
REMARK    7  A    between atoms: C_18  and  C_19 
REMARK    8  A    between atoms: C_19  and  O_21 
REMARK    9  A    between atoms: C_28  and  C_29 
REMARK   10  A    between atoms: C_29  and  C_30 
REMARK   11  A    between atoms: C_30  and  C_31 
REMARK   12  A    between atoms: C_31  and  O_33 
REMARK   13  A    between atoms: C_42  and  C_43 
REMARK   14  A    between atoms: C_43  and  C_44 
REMARK   15  A    between atoms: C_44  and  C_45 
REMARK   16  A    between atoms: C_45  and  O_47 
ROOT
HETATM    1  C   UNK     0     -14.823  -4.064   0.051  0.00  0.00     0.051 C 
HETATM    2  C   UNK     0     -13.641  -4.448   0.917  0.00  0.00    -0.031 A 
HETATM    3  C   UNK     0     -12.691  -5.438   0.720  0.00  0.00     0.021 A 
HETATM    4  N   UNK     0     -11.835  -5.443   1.769  0.00  0.00    -0.361 N 
HETATM    5  C   UNK     0     -12.212  -4.472   2.626  0.00  0.00     0.022 A 
HETATM    6  C   UNK     0     -13.341  -3.831   2.125  0.00  0.00    -0.027 A 
HETATM    7  C   UNK     0     -11.552  -4.003   3.885  0.00  0.00     0.115 C 
HETATM    8  C   UNK     0     -10.040  -3.863   3.850  0.00  0.00     0.021 A 
HETATM    9  N   UNK     0      -9.261  -3.467   2.832  0.00  0.00    -0.361 N 
HETATM   10  C   UNK     0      -7.973  -3.583   3.221  0.00  0.00     0.022 A 
HETATM   11  C   UNK     0      -7.922  -4.058   4.528  0.00  0.00    -0.027 A 
HETATM   12  C   UNK     0      -9.221  -4.237   4.930  0.00  0.00    -0.031 A 
HETATM   13  C   UNK     0      -9.654  -4.737   6.290  0.00  0.00     0.051 C 
HETATM   14  C   UNK     0      -6.743  -3.303   2.361  0.00  0.00     0.115 C 
HETATM   15  C   UNK     0      -6.644  -4.181   1.124  0.00  0.00     0.021 A 
HETATM   16  N   UNK     0      -7.537  -4.293   0.123  0.00  0.00    -0.361 N 
HETATM   17  C   UNK     0      -7.114  -5.220  -0.740  0.00  0.00     0.022 A 
HETATM   18  C   UNK     0      -5.881  -5.729  -0.284  0.00  0.00    -0.027 A 
HETATM   19  C   UNK     0      -5.598  -5.069   0.883  0.00  0.00    -0.031 A 
HETATM   20  C   UNK     0      -4.333  -5.291   1.692  0.00  0.00     0.051 C 
HETATM   21  C   UNK     0      -7.779  -5.767  -1.982  0.00  0.00     0.115 C 
HETATM   22  C   UNK     0      -9.286  -5.870  -1.978  0.00  0.00     0.022 A 
HETATM   23  N   UNK     0     -10.089  -6.258  -0.978  0.00  0.00    -0.361 N 
HETATM   24  C   UNK     0     -11.367  -6.060  -1.360  0.00  0.00     0.021 A 
HETATM   25  C   UNK     0     -11.388  -5.543  -2.641  0.00  0.00    -0.031 A 
HETATM   26  C   UNK     0     -12.579  -5.195  -3.509  0.00  0.00     0.051 C 
HETATM   27  C   UNK     0     -10.068  -5.412  -3.058  0.00  0.00    -0.027 A 
HETATM   28  C   UNK     0     -12.626  -6.263  -0.534  0.00  0.00     0.115 C 
HETATM   29  H   UNK     0     -10.993  -6.159   1.916  0.00  0.00     0.165 HD
HETATM   30  H   UNK     0      -9.617  -3.057   1.855  0.00  0.00     0.165 HD
HETATM   31  H   UNK     0      -8.462  -3.672  -0.004  0.00  0.00     0.165 HD
HETATM   32  H   UNK     0      -9.762  -6.716  -0.009  0.00  0.00     0.165 HD
ENDROOT
BRANCH   6  33
HETATM   33  C   UNK     0     -14.147  -2.695   2.701  0.00  0.00     0.051 C 
BRANCH  33  34
HETATM   34  C   UNK     0     -14.881  -3.136   3.944  0.00  0.00     0.114 C 
BRANCH  34  35
HETATM   35  C   UNK     0     -16.003  -4.018   3.511  0.00  0.00     0.139 C 
HETATM   36  O   UNK     0     -16.975  -3.539   2.859  0.00  0.00    -0.650 OA
BRANCH  35  37
HETATM   37  O   UNK     0     -16.037  -5.379   3.792  0.00  0.00    -0.776 OA
HETATM   38  H   UNK     0     -16.121  -6.072   3.066  0.00  0.00     0.167 HD
ENDBRANCH  35  37
ENDBRANCH  34  35
ENDBRANCH  33  34
ENDBRANCH   6  33
BRANCH  27  39
HETATM   39  C   UNK     0      -9.691  -4.950  -4.421  0.00  0.00     0.051 C 
BRANCH  39  40
HETATM   40  C   UNK     0      -8.548  -4.047  -4.556  0.00  0.00     0.114 C 
BRANCH  40  41
HETATM   41  C   UNK     0      -7.459  -4.313  -5.469  0.00  0.00     0.139 C 
HETATM   42  O   UNK     0      -7.455  -5.256  -6.272  0.00  0.00    -0.650 OA
BRANCH  41  43
HETATM   43  O   UNK     0      -6.322  -3.456  -5.456  0.00  0.00    -0.776 OA
HETATM   44  H   UNK     0      -6.243  -2.853  -6.266  0.00  0.00     0.167 HD
ENDBRANCH  41  43
ENDBRANCH  40  41
ENDBRANCH  39  40
ENDBRANCH  27  39
BRANCH  11  45
HETATM   45  C   UNK     0      -6.715  -4.337   5.382  0.00  0.00     0.051 C 
BRANCH  45  46
HETATM   46  C   UNK     0      -6.013  -5.602   5.045  0.00  0.00     0.114 C 
BRANCH  46  47
HETATM   47  C   UNK     0      -4.553  -5.299   5.006  0.00  0.00     0.139 C 
HETATM   48  O   UNK     0      -4.195  -4.114   4.956  0.00  0.00    -0.650 OA
BRANCH  47  49
HETATM   49  O   UNK     0      -3.625  -6.310   5.025  0.00  0.00    -0.776 OA
HETATM   50  H   UNK     0      -2.616  -6.123   5.062  0.00  0.00     0.167 HD
ENDBRANCH  47  49
ENDBRANCH  46  47
ENDBRANCH  45  46
ENDBRANCH  11  45
BRANCH  18  51
HETATM   51  C   UNK     0      -5.012  -6.772  -0.937  0.00  0.00     0.051 C 
BRANCH  51  52
HETATM   52  C   UNK     0      -4.105  -6.026  -1.905  0.00  0.00     0.114 C 
BRANCH  52  53
HETATM   53  C   UNK     0      -4.229  -6.541  -3.282  0.00  0.00     0.139 C 
HETATM   54  O   UNK     0      -4.140  -7.760  -3.499  0.00  0.00    -0.650 OA
BRANCH  53  55
HETATM   55  O   UNK     0      -4.440  -5.665  -4.319  0.00  0.00    -0.776 OA
HETATM   56  H   UNK     0      -3.877  -4.878  -4.542  0.00  0.00     0.167 HD
ENDBRANCH  53  55
ENDBRANCH  52  53
ENDBRANCH  51  52
ENDBRANCH  18  51
TORSDOF 16
ENDMDL
MODEL 9
REMARK VINA RESULT:      -7.8      1.877      7.057
REMARK  16 active torsions:
REMARK  status: ('A' for Active; 'I' for Inactive)
REMARK    1  A    between atoms: C_6  and  C_7 
REMARK    2  A    between atoms: C_7  and  C_8 
REMARK    3  A    between atoms: C_8  and  C_9 
REMARK    4  A    between atoms: C_9  and  O_11 
REMARK    5  A    between atoms: C_16  and  C_17 
REMARK    6  A    between atoms: C_17  and  C_18 
REMARK    7  A    between atoms: C_18  and  C_19 
REMARK    8  A    between atoms: C_19  and  O_21 
REMARK    9  A    between atoms: C_28  and  C_29 
REMARK   10  A    between atoms: C_29  and  C_30 
REMARK   11  A    between atoms: C_30  and  C_31 
REMARK   12  A    between atoms: C_31  and  O_33 
REMARK   13  A    between atoms: C_42  and  C_43 
REMARK   14  A    between atoms: C_43  and  C_44 
REMARK   15  A    between atoms: C_44  and  C_45 
REMARK   16  A    between atoms: C_45  and  O_47 
ROOT
HETATM    1  C   UNK     0      13.392  -5.357  -6.522  0.00  0.00     0.051 C 
HETATM    2  C   UNK     0      13.031  -6.136  -5.273  0.00  0.00    -0.031 A 
HETATM    3  C   UNK     0      11.937  -6.952  -5.031  0.00  0.00     0.021 A 
HETATM    4  N   UNK     0      12.008  -7.419  -3.762  0.00  0.00    -0.361 N 
HETATM    5  C   UNK     0      13.128  -6.927  -3.193  0.00  0.00     0.022 A 
HETATM    6  C   UNK     0      13.790  -6.118  -4.110  0.00  0.00    -0.027 A 
HETATM    7  C   UNK     0      13.715  -7.209  -1.846  0.00  0.00     0.115 C 
HETATM    8  C   UNK     0      13.704  -8.657  -1.387  0.00  0.00     0.021 A 
HETATM    9  N   UNK     0      13.867  -9.768  -2.122  0.00  0.00    -0.361 N 
HETATM   10  C   UNK     0      13.689 -10.835  -1.315  0.00  0.00     0.022 A 
HETATM   11  C   UNK     0      13.412 -10.399  -0.022  0.00  0.00    -0.027 A 
HETATM   12  C   UNK     0      13.420  -9.028  -0.061  0.00  0.00    -0.031 A 
HETATM   13  C   UNK     0      13.173  -8.119   1.122  0.00  0.00     0.051 C 
HETATM   14  C   UNK     0      13.719 -12.301  -1.738  0.00  0.00     0.115 C 
HETATM   15  C   UNK     0      12.660 -12.667  -2.766  0.00  0.00     0.021 A 
HETATM   16  N   UNK     0      12.484 -12.133  -3.990  0.00  0.00    -0.361 N 
HETATM   17  C   UNK     0      11.403 -12.676  -4.553  0.00  0.00     0.022 A 
HETATM   18  C   UNK     0      10.853 -13.615  -3.658  0.00  0.00    -0.027 A 
HETATM   19  C   UNK     0      11.650 -13.601  -2.543  0.00  0.00    -0.031 A 
HETATM   20  C   UNK     0      11.433 -14.498  -1.338  0.00  0.00     0.051 C 
HETATM   21  C   UNK     0      10.741 -12.372  -5.879  0.00  0.00     0.115 C 
HETATM   22  C   UNK     0      10.783 -10.944  -6.368  0.00  0.00     0.022 A 
HETATM   23  N   UNK     0      10.628  -9.819  -5.658  0.00  0.00    -0.361 N 
HETATM   24  C   UNK     0      10.887  -8.770  -6.465  0.00  0.00     0.021 A 
HETATM   25  C   UNK     0      11.206  -9.231  -7.728  0.00  0.00    -0.031 A 
HETATM   26  C   UNK     0      11.532  -8.439  -8.977  0.00  0.00     0.051 C 
HETATM   27  C   UNK     0      11.147 -10.619  -7.690  0.00  0.00    -0.027 A 
HETATM   28  C   UNK     0      10.931  -7.298  -6.091  0.00  0.00     0.115 C 
HETATM   29  H   UNK     0      11.245  -8.062  -3.264  0.00  0.00     0.165 HD
HETATM   30  H   UNK     0      14.158  -9.803  -3.201  0.00  0.00     0.165 HD
HETATM   31  H   UNK     0      13.164 -11.393  -4.486  0.00  0.00     0.165 HD
HETATM   32  H   UNK     0      10.292  -9.753  -4.591  0.00  0.00     0.165 HD
ENDROOT
BRANCH   6  33
HETATM   33  C   UNK     0      15.072  -5.337  -3.967  0.00  0.00     0.051 C 
BRANCH  33  34
HETATM   34  C   UNK     0      15.400  -5.110  -2.510  0.00  0.00     0.114 C 
BRANCH  34  35
HETATM   35  C   UNK     0      16.845  -4.752  -2.428  0.00  0.00     0.139 C 
HETATM   36  O   UNK     0      17.195  -3.598  -2.043  0.00  0.00    -0.650 OA
BRANCH  35  37
HETATM   37  O   UNK     0      17.858  -5.644  -2.758  0.00  0.00    -0.776 OA
HETATM   38  H   UNK     0      17.795  -6.627  -2.547  0.00  0.00     0.167 HD
ENDBRANCH  35  37
ENDBRANCH  34  35
ENDBRANCH  33  34
ENDBRANCH   6  33
BRANCH  27  39
HETATM   39  C   UNK     0      11.361 -11.472  -8.891  0.00  0.00     0.051 C 
BRANCH  39  40
HETATM   40  C   UNK     0      10.246 -11.659  -9.818  0.00  0.00     0.114 C 
BRANCH  40  41
HETATM   41  C   UNK     0       9.179 -12.600  -9.561  0.00  0.00     0.139 C 
HETATM   42  O   UNK     0       9.345 -13.677  -8.972  0.00  0.00    -0.650 OA
BRANCH  41  43
HETATM   43  O   UNK     0       7.861 -12.289 -10.001  0.00  0.00    -0.776 OA
HETATM   44  H   UNK     0       7.436 -11.501  -9.527  0.00  0.00     0.167 HD
ENDBRANCH  41  43
ENDBRANCH  40  41
ENDBRANCH  39  40
ENDBRANCH  27  39
BRANCH  11  45
HETATM   45  C   UNK     0      13.151 -11.219   1.212  0.00  0.00     0.051 C 
BRANCH  45  46
HETATM   46  C   UNK     0      11.713 -11.483   1.472  0.00  0.00     0.114 C 
BRANCH  46  47
HETATM   47  C   UNK     0      11.536 -11.551   2.951  0.00  0.00     0.139 C 
HETATM   48  O   UNK     0      11.826 -12.605   3.534  0.00  0.00    -0.650 OA
BRANCH  47  49
HETATM   49  O   UNK     0      11.061 -10.472   3.652  0.00  0.00    -0.776 OA
HETATM   50  H   UNK     0      10.208 -10.524   4.222  0.00  0.00     0.167 HD
ENDBRANCH  47  49
ENDBRANCH  46  47
ENDBRANCH  45  46
ENDBRANCH  11  45
BRANCH  18  51
HETATM   51  C   UNK     0       9.646 -14.494  -3.863  0.00  0.00     0.051 C 
BRANCH  51  52
HETATM   52  C   UNK     0      10.136 -15.721  -4.618  0.00  0.00     0.114 C 
BRANCH  52  53
HETATM   53  C   UNK     0       9.151 -16.180  -5.617  0.00  0.00     0.139 C 
HETATM   54  O   UNK     0       8.247 -16.963  -5.284  0.00  0.00    -0.650 OA
BRANCH  53  55
HETATM   55  O   UNK     0       9.243 -15.738  -6.915  0.00  0.00    -0.776 OA
HETATM   56  H   UNK     0       9.254 -14.790  -7.210  0.00  0.00     0.167 HD
ENDBRANCH  53  55
ENDBRANCH  52  53
ENDBRANCH  51  52
ENDBRANCH  18  51
TORSDOF 16
ENDMDL
MODEL 10
REMARK VINA RESULT:      -7.8     22.795     24.497
REMARK  16 active torsions:
REMARK  status: ('A' for Active; 'I' for Inactive)
REMARK    1  A    between atoms: C_6  and  C_7 
REMARK    2  A    between atoms: C_7  and  C_8 
REMARK    3  A    between atoms: C_8  and  C_9 
REMARK    4  A    between atoms: C_9  and  O_11 
REMARK    5  A    between atoms: C_16  and  C_17 
REMARK    6  A    between atoms: C_17  and  C_18 
REMARK    7  A    between atoms: C_18  and  C_19 
REMARK    8  A    between atoms: C_19  and  O_21 
REMARK    9  A    between atoms: C_28  and  C_29 
REMARK   10  A    between atoms: C_29  and  C_30 
REMARK   11  A    between atoms: C_30  and  C_31 
REMARK   12  A    between atoms: C_31  and  O_33 
REMARK   13  A    between atoms: C_42  and  C_43 
REMARK   14  A    between atoms: C_43  and  C_44 
REMARK   15  A    between atoms: C_44  and  C_45 
REMARK   16  A    between atoms: C_45  and  O_47 
ROOT
HETATM    1  C   UNK     0     -12.883  -5.420   9.122  0.00  0.00     0.051 C 
HETATM    2  C   UNK     0     -11.725  -5.642   8.170  0.00  0.00    -0.031 A 
HETATM    3  C   UNK     0     -11.717  -6.241   6.920  0.00  0.00     0.021 A 
HETATM    4  N   UNK     0     -10.449  -6.249   6.443  0.00  0.00    -0.361 N 
HETATM    5  C   UNK     0      -9.652  -5.659   7.357  0.00  0.00     0.022 A 
HETATM    6  C   UNK     0     -10.417  -5.270   8.452  0.00  0.00    -0.027 A 
HETATM    7  C   UNK     0      -8.193  -5.333   7.279  0.00  0.00     0.115 C 
HETATM    8  C   UNK     0      -7.692  -4.761   5.965  0.00  0.00     0.021 A 
HETATM    9  N   UNK     0      -8.322  -3.928   5.121  0.00  0.00    -0.361 N 
HETATM   10  C   UNK     0      -7.537  -3.759   4.036  0.00  0.00     0.022 A 
HETATM   11  C   UNK     0      -6.366  -4.495   4.189  0.00  0.00    -0.027 A 
HETATM   12  C   UNK     0      -6.457  -5.129   5.402  0.00  0.00    -0.031 A 
HETATM   13  C   UNK     0      -5.405  -6.040   5.993  0.00  0.00     0.051 C 
HETATM   14  C   UNK     0      -7.881  -2.942   2.794  0.00  0.00     0.115 C 
HETATM   15  C   UNK     0      -9.116  -3.434   2.056  0.00  0.00     0.021 A 
HETATM   16  N   UNK     0     -10.366  -3.558   2.538  0.00  0.00    -0.361 N 
HETATM   17  C   UNK     0     -11.148  -4.091   1.597  0.00  0.00     0.022 A 
HETATM   18  C   UNK     0     -10.372  -4.318   0.443  0.00  0.00    -0.027 A 
HETATM   19  C   UNK     0      -9.101  -3.901   0.743  0.00  0.00    -0.031 A 
HETATM   20  C   UNK     0      -7.947  -3.936  -0.242  0.00  0.00     0.051 C 
HETATM   21  C   UNK     0     -12.604  -4.496   1.657  0.00  0.00     0.115 C 
HETATM   22  C   UNK     0     -13.127  -5.026   2.972  0.00  0.00     0.022 A 
HETATM   23  N   UNK     0     -12.520  -5.853   3.833  0.00  0.00    -0.361 N 
HETATM   24  C   UNK     0     -13.285  -5.946   4.940  0.00  0.00     0.021 A 
HETATM   25  C   UNK     0     -14.415  -5.168   4.783  0.00  0.00    -0.031 A 
HETATM   26  C   UNK     0     -15.583  -4.981   5.730  0.00  0.00     0.051 C 
HETATM   27  C   UNK     0     -14.337  -4.569   3.531  0.00  0.00    -0.027 A 
HETATM   28  C   UNK     0     -12.971  -6.691   6.226  0.00  0.00     0.115 C 
HETATM   29  H   UNK     0     -10.121  -6.706   5.481  0.00  0.00     0.165 HD
HETATM   30  H   UNK     0      -9.298  -3.419   5.311  0.00  0.00     0.165 HD
HETATM   31  H   UNK     0     -10.717  -3.217   3.547  0.00  0.00     0.165 HD
HETATM   32  H   UNK     0     -11.567  -6.413   3.650  0.00  0.00     0.165 HD
ENDROOT
BRANCH   6  33
HETATM   33  C   UNK     0     -10.005  -4.583   9.729  0.00  0.00     0.051 C 
BRANCH  33  34
HETATM   34  C   UNK     0      -9.912  -3.089   9.527  0.00  0.00     0.114 C 
BRANCH  34  35
HETATM   35  C   UNK     0     -10.289  -2.440  10.815  0.00  0.00     0.139 C 
HETATM   36  O   UNK     0      -9.556  -1.536  11.312  0.00  0.00    -0.650 OA
BRANCH  35  37
HETATM   37  O   UNK     0     -11.438  -2.782  11.518  0.00  0.00    -0.776 OA
HETATM   38  H   UNK     0     -12.322  -2.932  11.059  0.00  0.00     0.167 HD
ENDBRANCH  35  37
ENDBRANCH  34  35
ENDBRANCH  33  34
ENDBRANCH   6  33
BRANCH  27  39
HETATM   39  C   UNK     0     -15.417  -3.709   2.975  0.00  0.00     0.051 C 
BRANCH  39  40
HETATM   40  C   UNK     0     -16.358  -4.302   2.026  0.00  0.00     0.114 C 
BRANCH  40  41
HETATM   41  C   UNK     0     -16.112  -4.312   0.601  0.00  0.00     0.139 C 
HETATM   42  O   UNK     0     -15.544  -5.242   0.012  0.00  0.00    -0.650 OA
BRANCH  41  43
HETATM   43  O   UNK     0     -16.539  -3.203  -0.182  0.00  0.00    -0.776 OA
HETATM   44  H   UNK     0     -15.806  -2.540  -0.404  0.00  0.00     0.167 HD
ENDBRANCH  41  43
ENDBRANCH  40  41
ENDBRANCH  39  40
ENDBRANCH  27  39
BRANCH  11  45
HETATM   45  C   UNK     0      -5.196  -4.610   3.248  0.00  0.00     0.051 C 
BRANCH  45  46
HETATM   46  C   UNK     0      -4.182  -3.537   3.408  0.00  0.00     0.114 C 
BRANCH  46  47
HETATM   47  C   UNK     0      -2.904  -4.193   3.808  0.00  0.00     0.139 C 
HETATM   48  O   UNK     0      -2.071  -3.529   4.441  0.00  0.00    -0.650 OA
BRANCH  47  49
HETATM   49  O   UNK     0      -2.655  -5.502   3.483  0.00  0.00    -0.776 OA
HETATM   50  H   UNK     0      -3.096  -6.282   3.984  0.00  0.00     0.167 HD
ENDBRANCH  47  49
ENDBRANCH  46  47
ENDBRANCH  45  46
ENDBRANCH  11  45
BRANCH  18  51
HETATM   51  C   UNK     0     -10.822  -4.882  -0.880  0.00  0.00     0.051 C 
BRANCH  51  52
HETATM   52  C   UNK     0     -11.315  -3.700  -1.701  0.00  0.00     0.114 C 
BRANCH  52  53
HETATM   53  C   UNK     0     -12.719  -3.870  -2.121  0.00  0.00     0.139 C 
HETATM   54  O   UNK     0     -12.996  -4.610  -3.079  0.00  0.00    -0.650 OA
BRANCH  53  55
HETATM   55  O   UNK     0     -13.715  -3.204  -1.449  0.00  0.00    -0.776 OA
HETATM   56  H   UNK     0     -13.619  -2.732  -0.581  0.00  0.00     0.167 HD
ENDBRANCH  53  55
ENDBRANCH  52  53
ENDBRANCH  51  52
ENDBRANCH  18  51
TORSDOF 16
ENDMDL
MODEL 11
REMARK VINA RESULT:      -7.8     25.408     30.619
REMARK  16 active torsions:
REMARK  status: ('A' for Active; 'I' for Inactive)
REMARK    1  A    between atoms: C_6  and  C_7 
REMARK    2  A    between atoms: C_7  and  C_8 
REMARK    3  A    between atoms: C_8  and  C_9 
REMARK    4  A    between atoms: C_9  and  O_11 
REMARK    5  A    between atoms: C_16  and  C_17 
REMARK    6  A    between atoms: C_17  and  C_18 
REMARK    7  A    between atoms: C_18  and  C_19 
REMARK    8  A    between atoms: C_19  and  O_21 
REMARK    9  A    between atoms: C_28  and  C_29 
REMARK   10  A    between atoms: C_29  and  C_30 
REMARK   11  A    between atoms: C_30  and  C_31 
REMARK   12  A    between atoms: C_31  and  O_33 
REMARK   13  A    between atoms: C_42  and  C_43 
REMARK   14  A    between atoms: C_43  and  C_44 
REMARK   15  A    between atoms: C_44  and  C_45 
REMARK   16  A    between atoms: C_45  and  O_47 
ROOT
HETATM    1  C   UNK     0      20.184  15.524  -6.209  0.00  0.00     0.051 C 
HETATM    2  C   UNK     0      18.783  16.098  -6.146  0.00  0.00    -0.031 A 
HETATM    3  C   UNK     0      18.365  17.413  -6.274  0.00  0.00     0.021 A 
HETATM    4  N   UNK     0      17.021  17.466  -6.116  0.00  0.00    -0.361 N 
HETATM    5  C   UNK     0      16.573  16.212  -5.899  0.00  0.00     0.022 A 
HETATM    6  C   UNK     0      17.650  15.331  -5.909  0.00  0.00    -0.027 A 
HETATM    7  C   UNK     0      15.168  15.714  -5.757  0.00  0.00     0.115 C 
HETATM    8  C   UNK     0      14.142  16.285  -6.720  0.00  0.00     0.021 A 
HETATM    9  N   UNK     0      14.304  16.629  -8.007  0.00  0.00    -0.361 N 
HETATM   10  C   UNK     0      13.150  17.178  -8.442  0.00  0.00     0.022 A 
HETATM   11  C   UNK     0      12.217  17.180  -7.409  0.00  0.00    -0.027 A 
HETATM   12  C   UNK     0      12.835  16.619  -6.322  0.00  0.00    -0.031 A 
HETATM   13  C   UNK     0      12.199  16.408  -4.966  0.00  0.00     0.051 C 
HETATM   14  C   UNK     0      12.899  17.769  -9.826  0.00  0.00     0.115 C 
HETATM   15  C   UNK     0      13.804  18.942 -10.168  0.00  0.00     0.021 A 
HETATM   16  N   UNK     0      15.149  18.956 -10.212  0.00  0.00    -0.361 N 
HETATM   17  C   UNK     0      15.566  20.195 -10.483  0.00  0.00     0.022 A 
HETATM   18  C   UNK     0      14.438  21.026 -10.632  0.00  0.00    -0.027 A 
HETATM   19  C   UNK     0      13.341  20.229 -10.434  0.00  0.00    -0.031 A 
HETATM   20  C   UNK     0      11.910  20.723 -10.540  0.00  0.00     0.051 C 
HETATM   21  C   UNK     0      16.970  20.750 -10.569  0.00  0.00     0.115 C 
HETATM   22  C   UNK     0      18.011  20.161  -9.647  0.00  0.00     0.022 A 
HETATM   23  N   UNK     0      17.878  19.805  -8.363  0.00  0.00    -0.361 N 
HETATM   24  C   UNK     0      19.012  19.190  -7.973  0.00  0.00     0.021 A 
HETATM   25  C   UNK     0      19.902  19.157  -9.030  0.00  0.00    -0.031 A 
HETATM   26  C   UNK     0      21.314  18.611  -9.070  0.00  0.00     0.051 C 
HETATM   27  C   UNK     0      19.284  19.773 -10.112  0.00  0.00    -0.027 A 
HETATM   28  C   UNK     0      19.300  18.532  -6.635  0.00  0.00     0.115 C 
HETATM   29  H   UNK     0      16.403  18.393  -6.120  0.00  0.00     0.165 HD
HETATM   30  H   UNK     0      15.214  16.439  -8.626  0.00  0.00     0.165 HD
HETATM   31  H   UNK     0      15.818  18.064 -10.097  0.00  0.00     0.165 HD
HETATM   32  H   UNK     0      16.996  20.024  -7.706  0.00  0.00     0.165 HD
ENDROOT
BRANCH   6  33
HETATM   33  C   UNK     0      17.683  13.837  -5.709  0.00  0.00     0.051 C 
BRANCH  33  34
HETATM   34  C   UNK     0      17.301  13.119  -6.982  0.00  0.00     0.114 C 
BRANCH  34  35
HETATM   35  C   UNK     0      16.654  11.834  -6.593  0.00  0.00     0.139 C 
HETATM   36  O   UNK     0      16.706  11.431  -5.394  0.00  0.00    -0.650 OA
BRANCH  35  37
HETATM   37  O   UNK     0      15.973  11.033  -7.501  0.00  0.00    -0.776 OA
HETATM   38  H   UNK     0      15.210  10.437  -7.222  0.00  0.00     0.167 HD
ENDBRANCH  35  37
ENDBRANCH  34  35
ENDBRANCH  33  34
ENDBRANCH   6  33
BRANCH  27  39
HETATM   39  C   UNK     0      19.965  19.992 -11.417  0.00  0.00     0.051 C 
BRANCH  39  40
HETATM   40  C   UNK     0      20.926  21.090 -11.524  0.00  0.00     0.114 C 
BRANCH  40  41
HETATM   41  C   UNK     0      22.251  20.904 -12.069  0.00  0.00     0.139 C 
HETATM   42  O   UNK     0      23.146  20.271 -11.491  0.00  0.00    -0.650 OA
BRANCH  41  43
HETATM   43  O   UNK     0      22.563  21.471 -13.338  0.00  0.00    -0.776 OA
HETATM   44  H   UNK     0      23.098  22.329 -13.293  0.00  0.00     0.167 HD
ENDBRANCH  41  43
ENDBRANCH  40  41
ENDBRANCH  39  40
ENDBRANCH  27  39
BRANCH  11  45
HETATM   45  C   UNK     0      10.797  17.680  -7.424  0.00  0.00     0.051 C 
BRANCH  45  46
HETATM   46  C   UNK     0      10.670  19.147  -7.223  0.00  0.00     0.114 C 
BRANCH  46  47
HETATM   47  C   UNK     0       9.378  19.385  -6.516  0.00  0.00     0.139 C 
HETATM   48  O   UNK     0       8.341  18.911  -7.002  0.00  0.00    -0.650 OA
BRANCH  47  49
HETATM   49  O   UNK     0       9.337  20.113  -5.354  0.00  0.00    -0.776 OA
HETATM   50  H   UNK     0       9.589  21.108  -5.326  0.00  0.00     0.167 HD
ENDBRANCH  47  49
ENDBRANCH  46  47
ENDBRANCH  45  46
ENDBRANCH  11  45
BRANCH  18  51
HETATM   51  C   UNK     0      14.408  22.495 -10.965  0.00  0.00     0.051 C 
BRANCH  51  52
HETATM   52  C   UNK     0      14.786  22.606 -12.435  0.00  0.00     0.114 C 
BRANCH  52  53
HETATM   53  C   UNK     0      13.607  22.491 -13.315  0.00  0.00     0.139 C 
HETATM   54  O   UNK     0      12.565  23.110 -13.043  0.00  0.00    -0.650 OA
BRANCH  53  55
HETATM   55  O   UNK     0      13.668  21.695 -14.433  0.00  0.00    -0.776 OA
HETATM   56  H   UNK     0      13.193  20.833 -14.563  0.00  0.00     0.167 HD
ENDBRANCH  53  55
ENDBRANCH  52  53
ENDBRANCH  51  52
ENDBRANCH  18  51
TORSDOF 16
ENDMDL
MODEL 12
REMARK VINA RESULT:      -7.7     24.249     25.678
REMARK  16 active torsions:
REMARK  status: ('A' for Active; 'I' for Inactive)
REMARK    1  A    between atoms: C_6  and  C_7 
REMARK    2  A    between atoms: C_7  and  C_8 
REMARK    3  A    between atoms: C_8  and  C_9 
REMARK    4  A    between atoms: C_9  and  O_11 
REMARK    5  A    between atoms: C_16  and  C_17 
REMARK    6  A    between atoms: C_17  and  C_18 
REMARK    7  A    between atoms: C_18  and  C_19 
REMARK    8  A    between atoms: C_19  and  O_21 
REMARK    9  A    between atoms: C_28  and  C_29 
REMARK   10  A    between atoms: C_29  and  C_30 
REMARK   11  A    between atoms: C_30  and  C_31 
REMARK   12  A    between atoms: C_31  and  O_33 
REMARK   13  A    between atoms: C_42  and  C_43 
REMARK   14  A    between atoms: C_43  and  C_44 
REMARK   15  A    between atoms: C_44  and  C_45 
REMARK   16  A    between atoms: C_45  and  O_47 
ROOT
HETATM    1  C   UNK     0     -17.777  -4.924   2.839  0.00  0.00     0.051 C 
HETATM    2  C   UNK     0     -16.318  -5.269   3.056  0.00  0.00    -0.031 A 
HETATM    3  C   UNK     0     -15.441  -5.948   2.225  0.00  0.00     0.021 A 
HETATM    4  N   UNK     0     -14.240  -6.054   2.842  0.00  0.00    -0.361 N 
HETATM    5  C   UNK     0     -14.330  -5.449   4.044  0.00  0.00     0.022 A 
HETATM    6  C   UNK     0     -15.618  -4.950   4.212  0.00  0.00    -0.027 A 
HETATM    7  C   UNK     0     -13.267  -5.207   5.070  0.00  0.00     0.115 C 
HETATM    8  C   UNK     0     -11.915  -4.749   4.554  0.00  0.00     0.021 A 
HETATM    9  N   UNK     0     -11.645  -3.940   3.517  0.00  0.00    -0.361 N 
HETATM   10  C   UNK     0     -10.305  -3.883   3.367  0.00  0.00     0.022 A 
HETATM   11  C   UNK     0      -9.694  -4.669   4.340  0.00  0.00    -0.027 A 
HETATM   12  C   UNK     0     -10.702  -5.217   5.091  0.00  0.00    -0.031 A 
HETATM   13  C   UNK     0     -10.509  -6.143   6.271  0.00  0.00     0.051 C 
HETATM   14  C   UNK     0      -9.551  -3.132   2.274  0.00  0.00     0.115 C 
HETATM   15  C   UNK     0      -9.876  -3.605   0.866  0.00  0.00     0.021 A 
HETATM   16  N   UNK     0     -11.080  -3.630   0.265  0.00  0.00    -0.361 N 
HETATM   17  C   UNK     0     -10.955  -4.181  -0.944  0.00  0.00     0.022 A 
HETATM   18  C   UNK     0      -9.603  -4.524  -1.145  0.00  0.00    -0.027 A 
HETATM   19  C   UNK     0      -8.937  -4.156  -0.004  0.00  0.00    -0.031 A 
HETATM   20  C   UNK     0      -7.440  -4.316   0.188  0.00  0.00     0.051 C 
HETATM   21  C   UNK     0     -12.010  -4.503  -1.979  0.00  0.00     0.115 C 
HETATM   22  C   UNK     0     -13.374  -4.918  -1.480  0.00  0.00     0.022 A 
HETATM   23  N   UNK     0     -13.672  -5.719  -0.448  0.00  0.00    -0.361 N 
HETATM   24  C   UNK     0     -15.008  -5.699  -0.269  0.00  0.00     0.021 A 
HETATM   25  C   UNK     0     -15.585  -4.874  -1.214  0.00  0.00    -0.031 A 
HETATM   26  C   UNK     0     -17.050  -4.564  -1.443  0.00  0.00     0.051 C 
HETATM   27  C   UNK     0     -14.559  -4.363  -2.001  0.00  0.00    -0.027 A 
HETATM   28  C   UNK     0     -15.808  -6.375   0.831  0.00  0.00     0.115 C 
HETATM   29  H   UNK     0     -13.349  -6.589   2.440  0.00  0.00     0.165 HD
HETATM   30  H   UNK     0     -12.397  -3.368   2.920  0.00  0.00     0.165 HD
HETATM   31  H   UNK     0     -12.030  -3.206   0.683  0.00  0.00     0.165 HD
HETATM   32  H   UNK     0     -12.944  -6.340   0.137  0.00  0.00     0.165 HD
ENDROOT
BRANCH   6  33
HETATM   33  C   UNK     0     -16.225  -4.204   5.373  0.00  0.00     0.051 C 
BRANCH  33  34
HETATM   34  C   UNK     0     -16.310  -2.726   5.074  0.00  0.00     0.114 C 
BRANCH  34  35
HETATM   35  C   UNK     0     -17.526  -2.201   5.758  0.00  0.00     0.139 C 
HETATM   36  O   UNK     0     -18.630  -2.144   5.140  0.00  0.00    -0.650 OA
BRANCH  35  37
HETATM   37  O   UNK     0     -17.514  -1.761   7.076  0.00  0.00    -0.776 OA
HETATM   38  H   UNK     0     -18.045  -2.220   7.798  0.00  0.00     0.167 HD
ENDBRANCH  35  37
ENDBRANCH  34  35
ENDBRANCH  33  34
ENDBRANCH   6  33
BRANCH  27  39
HETATM   39  C   UNK     0     -14.801  -3.484  -3.178  0.00  0.00     0.051 C 
BRANCH  39  40
HETATM   40  C   UNK     0     -14.803  -2.036  -2.974  0.00  0.00     0.114 C 
BRANCH  40  41
HETATM   41  C   UNK     0     -15.660  -1.396  -2.001  0.00  0.00     0.139 C 
HETATM   42  O   UNK     0     -15.367  -1.281  -0.803  0.00  0.00    -0.650 OA
BRANCH  41  43
HETATM   43  O   UNK     0     -16.911  -0.864  -2.425  0.00  0.00    -0.776 OA
HETATM   44  H   UNK     0     -17.483  -0.492  -1.677  0.00  0.00     0.167 HD
ENDBRANCH  41  43
ENDBRANCH  40  41
ENDBRANCH  39  40
ENDBRANCH  27  39
BRANCH  11  45
HETATM   45  C   UNK     0      -8.226  -4.907   4.574  0.00  0.00     0.051 C 
BRANCH  45  46
HETATM   46  C   UNK     0      -7.590  -3.922   5.486  0.00  0.00     0.114 C 
BRANCH  46  47
HETATM   47  C   UNK     0      -6.203  -4.399   5.752  0.00  0.00     0.139 C 
HETATM   48  O   UNK     0      -6.043  -5.557   6.160  0.00  0.00    -0.650 OA
BRANCH  47  49
HETATM   49  O   UNK     0      -5.125  -3.573   5.552  0.00  0.00    -0.776 OA
HETATM   50  H   UNK     0      -4.972  -2.730   6.119  0.00  0.00     0.167 HD
ENDBRANCH  47  49
ENDBRANCH  46  47
ENDBRANCH  45  46
ENDBRANCH  11  45
BRANCH  18  51
HETATM   51  C   UNK     0      -8.976  -5.147  -2.365  0.00  0.00     0.051 C 
BRANCH  51  52
HETATM   52  C   UNK     0      -8.567  -3.994  -3.269  0.00  0.00     0.114 C 
BRANCH  52  53
HETATM   53  C   UNK     0      -7.174  -4.132  -3.738  0.00  0.00     0.139 C 
HETATM   54  O   UNK     0      -6.351  -4.771  -3.062  0.00  0.00    -0.650 OA
BRANCH  53  55
HETATM   55  O   UNK     0      -6.794  -3.546  -4.921  0.00  0.00    -0.776 OA
HETATM   56  H   UNK     0      -7.301  -3.572  -5.774  0.00  0.00     0.167 HD
ENDBRANCH  53  55
ENDBRANCH  52  53
ENDBRANCH  51  52
ENDBRANCH  18  51
TORSDOF 16
ENDMDL
MODEL 13
REMARK VINA RESULT:      -7.6     34.911     36.699
REMARK  16 active torsions:
REMARK  status: ('A' for Active; 'I' for Inactive)
REMARK    1  A    between atoms: C_6  and  C_7 
REMARK    2  A    between atoms: C_7  and  C_8 
REMARK    3  A    between atoms: C_8  and  C_9 
REMARK    4  A    between atoms: C_9  and  O_11 
REMARK    5  A    between atoms: C_16  and  C_17 
REMARK    6  A    between atoms: C_17  and  C_18 
REMARK    7  A    between atoms: C_18  and  C_19 
REMARK    8  A    between atoms: C_19  and  O_21 
REMARK    9  A    between atoms: C_28  and  C_29 
REMARK   10  A    between atoms: C_29  and  C_30 
REMARK   11  A    between atoms: C_30  and  C_31 
REMARK   12  A    between atoms: C_31  and  O_33 
REMARK   13  A    between atoms: C_42  and  C_43 
REMARK   14  A    between atoms: C_43  and  C_44 
REMARK   15  A    between atoms: C_44  and  C_45 
REMARK   16  A    between atoms: C_45  and  O_47 
ROOT
HETATM    1  C   UNK     0     -23.445  -8.126  -1.865  0.00  0.00     0.051 C 
HETATM    2  C   UNK     0     -22.697  -7.019  -1.150  0.00  0.00    -0.031 A 
HETATM    3  C   UNK     0     -22.849  -5.645  -1.254  0.00  0.00     0.021 A 
HETATM    4  N   UNK     0     -21.942  -5.039  -0.451  0.00  0.00    -0.361 N 
HETATM    5  C   UNK     0     -21.222  -5.996   0.168  0.00  0.00     0.022 A 
HETATM    6  C   UNK     0     -21.666  -7.247  -0.248  0.00  0.00    -0.027 A 
HETATM    7  C   UNK     0     -20.165  -5.862   1.220  0.00  0.00     0.115 C 
HETATM    8  C   UNK     0     -20.430  -4.859   2.328  0.00  0.00     0.021 A 
HETATM    9  N   UNK     0     -21.598  -4.545   2.910  0.00  0.00    -0.361 N 
HETATM   10  C   UNK     0     -21.376  -3.536   3.780  0.00  0.00     0.022 A 
HETATM   11  C   UNK     0     -20.026  -3.198   3.765  0.00  0.00    -0.027 A 
HETATM   12  C   UNK     0     -19.425  -4.027   2.853  0.00  0.00    -0.031 A 
HETATM   13  C   UNK     0     -17.953  -4.024   2.506  0.00  0.00     0.051 C 
HETATM   14  C   UNK     0     -22.431  -2.819   4.617  0.00  0.00     0.115 C 
HETATM   15  C   UNK     0     -23.501  -2.121   3.792  0.00  0.00     0.021 A 
HETATM   16  N   UNK     0     -24.336  -2.673   2.892  0.00  0.00    -0.361 N 
HETATM   17  C   UNK     0     -25.076  -1.714   2.333  0.00  0.00     0.022 A 
HETATM   18  C   UNK     0     -24.713  -0.477   2.903  0.00  0.00    -0.027 A 
HETATM   19  C   UNK     0     -23.726  -0.746   3.816  0.00  0.00    -0.031 A 
HETATM   20  C   UNK     0     -23.073   0.311   4.688  0.00  0.00     0.051 C 
HETATM   21  C   UNK     0     -26.102  -1.798   1.226  0.00  0.00     0.115 C 
HETATM   22  C   UNK     0     -25.873  -2.823   0.140  0.00  0.00     0.022 A 
HETATM   23  N   UNK     0     -24.721  -3.159  -0.454  0.00  0.00    -0.361 N 
HETATM   24  C   UNK     0     -24.952  -4.216  -1.259  0.00  0.00     0.021 A 
HETATM   25  C   UNK     0     -26.288  -4.563  -1.188  0.00  0.00    -0.031 A 
HETATM   26  C   UNK     0     -27.031  -5.651  -1.935  0.00  0.00     0.051 C 
HETATM   27  C   UNK     0     -26.898  -3.685  -0.300  0.00  0.00    -0.027 A 
HETATM   28  C   UNK     0     -23.939  -5.007  -2.068  0.00  0.00     0.115 C 
HETATM   29  H   UNK     0     -21.792  -3.938  -0.358  0.00  0.00     0.165 HD
HETATM   30  H   UNK     0     -22.573  -5.066   2.745  0.00  0.00     0.165 HD
HETATM   31  H   UNK     0     -24.439  -3.770   2.681  0.00  0.00     0.165 HD
HETATM   32  H   UNK     0     -23.742  -2.625  -0.345  0.00  0.00     0.165 HD
ENDROOT
BRANCH   6  33
HETATM   33  C   UNK     0     -21.189  -8.624   0.139  0.00  0.00     0.051 C 
BRANCH  33  34
HETATM   34  C   UNK     0     -19.995  -9.030  -0.692  0.00  0.00     0.114 C 
BRANCH  34  35
HETATM   35  C   UNK     0     -20.389 -10.230  -1.485  0.00  0.00     0.139 C 
HETATM   36  O   UNK     0     -19.687 -10.601  -2.470  0.00  0.00    -0.650 OA
BRANCH  35  37
HETATM   37  O   UNK     0     -21.517 -10.985  -1.190  0.00  0.00    -0.776 OA
HETATM   38  H   UNK     0     -21.944 -10.975  -0.277  0.00  0.00     0.167 HD
ENDBRANCH  35  37
ENDBRANCH  34  35
ENDBRANCH  33  34
ENDBRANCH   6  33
BRANCH  27  39
HETATM   39  C   UNK     0     -28.359  -3.702  -0.018  0.00  0.00     0.051 C 
BRANCH  39  40
HETATM   40  C   UNK     0     -29.213  -2.745  -0.721  0.00  0.00     0.114 C 
BRANCH  40  41
HETATM   41  C   UNK     0     -29.434  -1.403  -0.229  0.00  0.00     0.139 C 
HETATM   42  O   UNK     0     -29.742  -1.147   0.943  0.00  0.00    -0.650 OA
BRANCH  41  43
HETATM   43  O   UNK     0     -29.294  -0.307  -1.126  0.00  0.00    -0.776 OA
HETATM   44  H   UNK     0     -30.063   0.353  -1.105  0.00  0.00     0.167 HD
ENDBRANCH  41  43
ENDBRANCH  40  41
ENDBRANCH  39  40
ENDBRANCH  27  39
BRANCH  11  45
HETATM   45  C   UNK     0     -19.310  -2.145   4.568  0.00  0.00     0.051 C 
BRANCH  45  46
HETATM   46  C   UNK     0     -18.888  -2.596   5.918  0.00  0.00     0.114 C 
BRANCH  46  47
HETATM   47  C   UNK     0     -19.620  -1.759   6.912  0.00  0.00     0.139 C 
HETATM   48  O   UNK     0     -20.520  -2.285   7.581  0.00  0.00    -0.650 OA
BRANCH  47  49
HETATM   49  O   UNK     0     -19.305  -0.434   7.082  0.00  0.00    -0.776 OA
HETATM   50  H   UNK     0     -18.336  -0.097   7.061  0.00  0.00     0.167 HD
ENDBRANCH  47  49
ENDBRANCH  46  47
ENDBRANCH  45  46
ENDBRANCH  11  45
BRANCH  18  51
HETATM   51  C   UNK     0     -25.289   0.884   2.609  0.00  0.00     0.051 C 
BRANCH  51  52
HETATM   52  C   UNK     0     -26.348   1.136   3.671  0.00  0.00     0.114 C 
BRANCH  52  53
HETATM   53  C   UNK     0     -27.596   1.668   3.088  0.00  0.00     0.139 C 
HETATM   54  O   UNK     0     -28.131   2.674   3.579  0.00  0.00    -0.650 OA
BRANCH  53  55
HETATM   55  O   UNK     0     -28.160   1.040   2.004  0.00  0.00    -0.776 OA
HETATM   56  H   UNK     0     -27.920   0.141   1.660  0.00  0.00     0.167 HD
ENDBRANCH  53  55
ENDBRANCH  52  53
ENDBRANCH  51  52
ENDBRANCH  18  51
TORSDOF 16
ENDMDL
MODEL 14
REMARK VINA RESULT:      -7.6     11.012     15.130
REMARK  16 active torsions:
REMARK  status: ('A' for Active; 'I' for Inactive)
REMARK    1  A    between atoms: C_6  and  C_7 
REMARK    2  A    between atoms: C_7  and  C_8 
REMARK    3  A    between atoms: C_8  and  C_9 
REMARK    4  A    between atoms: C_9  and  O_11 
REMARK    5  A    between atoms: C_16  and  C_17 
REMARK    6  A    between atoms: C_17  and  C_18 
REMARK    7  A    between atoms: C_18  and  C_19 
REMARK    8  A    between atoms: C_19  and  O_21 
REMARK    9  A    between atoms: C_28  and  C_29 
REMARK   10  A    between atoms: C_29  and  C_30 
REMARK   11  A    between atoms: C_30  and  C_31 
REMARK   12  A    between atoms: C_31  and  O_33 
REMARK   13  A    between atoms: C_42  and  C_43 
REMARK   14  A    between atoms: C_43  and  C_44 
REMARK   15  A    between atoms: C_44  and  C_45 
REMARK   16  A    between atoms: C_45  and  O_47 
ROOT
HETATM    1  C   UNK     0       2.502 -15.863 -11.168  0.00  0.00     0.051 C 
HETATM    2  C   UNK     0       2.533 -15.086 -12.468  0.00  0.00    -0.031 A 
HETATM    3  C   UNK     0       1.506 -14.424 -13.122  0.00  0.00     0.021 A 
HETATM    4  N   UNK     0       1.985 -13.892 -14.272  0.00  0.00    -0.361 N 
HETATM    5  C   UNK     0       3.297 -14.193 -14.360  0.00  0.00     0.022 A 
HETATM    6  C   UNK     0       3.672 -14.942 -13.250  0.00  0.00    -0.027 A 
HETATM    7  C   UNK     0       4.305 -13.768 -15.382  0.00  0.00     0.115 C 
HETATM    8  C   UNK     0       4.254 -12.316 -15.826  0.00  0.00     0.021 A 
HETATM    9  N   UNK     0       3.957 -11.229 -15.097  0.00  0.00    -0.361 N 
HETATM   10  C   UNK     0       3.943 -10.162 -15.924  0.00  0.00     0.022 A 
HETATM   11  C   UNK     0       4.249 -10.571 -17.218  0.00  0.00    -0.027 A 
HETATM   12  C   UNK     0       4.446 -11.927 -17.164  0.00  0.00    -0.031 A 
HETATM   13  C   UNK     0       4.808 -12.806 -18.340  0.00  0.00     0.051 C 
HETATM   14  C   UNK     0       3.590  -8.728 -15.538  0.00  0.00     0.115 C 
HETATM   15  C   UNK     0       2.178  -8.565 -15.001  0.00  0.00     0.021 A 
HETATM   16  N   UNK     0       1.630  -9.174 -13.933  0.00  0.00    -0.361 N 
HETATM   17  C   UNK     0       0.347  -8.817 -13.834  0.00  0.00     0.022 A 
HETATM   18  C   UNK     0       0.048  -7.925 -14.883  0.00  0.00    -0.027 A 
HETATM   19  C   UNK     0       1.203  -7.774 -15.605  0.00  0.00    -0.031 A 
HETATM   20  C   UNK     0       1.330  -6.862 -16.812  0.00  0.00     0.051 C 
HETATM   21  C   UNK     0      -0.717  -9.273 -12.862  0.00  0.00     0.115 C 
HETATM   22  C   UNK     0      -0.652 -10.703 -12.378  0.00  0.00     0.022 A 
HETATM   23  N   UNK     0      -0.355 -11.804 -13.079  0.00  0.00    -0.361 N 
HETATM   24  C   UNK     0      -0.270 -12.842 -12.223  0.00  0.00     0.021 A 
HETATM   25  C   UNK     0      -0.530 -12.400 -10.940  0.00  0.00    -0.031 A 
HETATM   26  C   UNK     0      -0.592 -13.195  -9.652  0.00  0.00     0.051 C 
HETATM   27  C   UNK     0      -0.777 -11.034 -11.013  0.00  0.00    -0.027 A 
HETATM   28  C   UNK     0       0.131 -14.274 -12.534  0.00  0.00     0.115 C 
HETATM   29  H   UNK     0       1.384 -13.341 -15.032  0.00  0.00     0.165 HD
HETATM   30  H   UNK     0       3.805 -11.204 -13.991  0.00  0.00     0.165 HD
HETATM   31  H   UNK     0       2.171  -9.833 -13.205  0.00  0.00     0.165 HD
HETATM   32  H   UNK     0      -0.244 -11.867 -14.193  0.00  0.00     0.165 HD
ENDROOT
BRANCH   6  33
HETATM   33  C   UNK     0       5.013 -15.526 -12.881  0.00  0.00     0.051 C 
BRANCH  33  34
HETATM   34  C   UNK     0       5.899 -14.475 -12.255  0.00  0.00     0.114 C 
BRANCH  34  35
HETATM   35  C   UNK     0       6.615 -15.118 -11.115  0.00  0.00     0.139 C 
HETATM   36  O   UNK     0       6.024 -15.968 -10.389  0.00  0.00    -0.650 OA
BRANCH  35  37
HETATM   37  O   UNK     0       7.937 -14.826 -10.801  0.00  0.00    -0.776 OA
HETATM   38  H   UNK     0       8.707 -15.348 -11.188  0.00  0.00     0.167 HD
ENDBRANCH  35  37
ENDBRANCH  34  35
ENDBRANCH  33  34
ENDBRANCH   6  33
BRANCH  27  39
HETATM   39  C   UNK     0      -1.167 -10.217  -9.833  0.00  0.00     0.051 C 
BRANCH  39  40
HETATM   40  C   UNK     0      -0.246  -9.177  -9.374  0.00  0.00     0.114 C 
BRANCH  40  41
HETATM   41  C   UNK     0      -0.521  -7.769  -9.556  0.00  0.00     0.139 C 
HETATM   42  O   UNK     0      -1.513  -7.200  -9.081  0.00  0.00    -0.650 OA
BRANCH  41  43
HETATM   43  O   UNK     0       0.387  -6.981 -10.318  0.00  0.00    -0.776 OA
HETATM   44  H   UNK     0       1.214  -7.476 -10.629  0.00  0.00     0.167 HD
ENDBRANCH  41  43
ENDBRANCH  40  41
ENDBRANCH  39  40
ENDBRANCH  27  39
BRANCH  11  45
HETATM   45  C   UNK     0       4.360  -9.739 -18.468  0.00  0.00     0.051 C 
BRANCH  45  46
HETATM   46  C   UNK     0       3.061  -9.221 -18.968  0.00  0.00     0.114 C 
BRANCH  46  47
HETATM   47  C   UNK     0       3.300  -7.834 -19.462  0.00  0.00     0.139 C 
HETATM   48  O   UNK     0       2.541  -7.375 -20.327  0.00  0.00    -0.650 OA
BRANCH  47  49
HETATM   49  O   UNK     0       4.338  -7.083 -18.971  0.00  0.00    -0.776 OA
HETATM   50  H   UNK     0       5.199  -6.927 -19.508  0.00  0.00     0.167 HD
ENDBRANCH  47  49
ENDBRANCH  46  47
ENDBRANCH  45  46
ENDBRANCH  11  45
BRANCH  18  51
HETATM   51  C   UNK     0      -1.262  -7.237 -15.168  0.00  0.00     0.051 C 
BRANCH  51  52
HETATM   52  C   UNK     0      -1.163  -5.854 -14.541  0.00  0.00     0.114 C 
BRANCH  52  53
HETATM   53  C   UNK     0      -1.705  -4.808 -15.429  0.00  0.00     0.139 C 
HETATM   54  O   UNK     0      -1.751  -4.996 -16.655  0.00  0.00    -0.650 OA
BRANCH  53  55
HETATM   55  O   UNK     0      -2.152  -3.625 -14.892  0.00  0.00    -0.776 OA
HETATM   56  H   UNK     0      -2.376  -3.465 -13.938  0.00  0.00     0.167 HD
ENDBRANCH  53  55
ENDBRANCH  52  53
ENDBRANCH  51  52
ENDBRANCH  18  51
TORSDOF 16
ENDMDL
MODEL 15
REMARK VINA RESULT:      -7.6     21.304     22.976
REMARK  16 active torsions:
REMARK  status: ('A' for Active; 'I' for Inactive)
REMARK    1  A    between atoms: C_6  and  C_7 
REMARK    2  A    between atoms: C_7  and  C_8 
REMARK    3  A    between atoms: C_8  and  C_9 
REMARK    4  A    between atoms: C_9  and  O_11 
REMARK    5  A    between atoms: C_16  and  C_17 
REMARK    6  A    between atoms: C_17  and  C_18 
REMARK    7  A    between atoms: C_18  and  C_19 
REMARK    8  A    between atoms: C_19  and  O_21 
REMARK    9  A    between atoms: C_28  and  C_29 
REMARK   10  A    between atoms: C_29  and  C_30 
REMARK   11  A    between atoms: C_30  and  C_31 
REMARK   12  A    between atoms: C_31  and  O_33 
REMARK   13  A    between atoms: C_42  and  C_43 
REMARK   14  A    between atoms: C_43  and  C_44 
REMARK   15  A    between atoms: C_44  and  C_45 
REMARK   16  A    between atoms: C_45  and  O_47 
ROOT
HETATM    1  C   UNK     0     -15.140  -5.513  -3.092  0.00  0.00     0.051 C 
HETATM    2  C   UNK     0     -14.217  -5.533  -1.891  0.00  0.00    -0.031 A 
HETATM    3  C   UNK     0     -13.149  -6.373  -1.617  0.00  0.00     0.021 A 
HETATM    4  N   UNK     0     -12.629  -6.046  -0.410  0.00  0.00    -0.361 N 
HETATM    5  C   UNK     0     -13.337  -5.011   0.087  0.00  0.00     0.022 A 
HETATM    6  C   UNK     0     -14.340  -4.666  -0.813  0.00  0.00    -0.027 A 
HETATM    7  C   UNK     0     -13.114  -4.218   1.337  0.00  0.00     0.115 C 
HETATM    8  C   UNK     0     -11.679  -3.841   1.658  0.00  0.00     0.021 A 
HETATM    9  N   UNK     0     -10.691  -3.514   0.811  0.00  0.00    -0.361 N 
HETATM   10  C   UNK     0      -9.561  -3.345   1.531  0.00  0.00     0.022 A 
HETATM   11  C   UNK     0      -9.832  -3.558   2.879  0.00  0.00    -0.027 A 
HETATM   12  C   UNK     0     -11.164  -3.871   2.967  0.00  0.00    -0.031 A 
HETATM   13  C   UNK     0     -11.907  -4.179   4.247  0.00  0.00     0.051 C 
HETATM   14  C   UNK     0      -8.176  -3.028   0.973  0.00  0.00     0.115 C 
HETATM   15  C   UNK     0      -7.636  -4.089   0.027  0.00  0.00     0.021 A 
HETATM   16  N   UNK     0      -8.192  -4.527  -1.119  0.00  0.00    -0.361 N 
HETATM   17  C   UNK     0      -7.444  -5.513  -1.619  0.00  0.00     0.022 A 
HETATM   18  C   UNK     0      -6.344  -5.721  -0.764  0.00  0.00    -0.027 A 
HETATM   19  C   UNK     0      -6.475  -4.822   0.262  0.00  0.00    -0.031 A 
HETATM   20  C   UNK     0      -5.475  -4.682   1.395  0.00  0.00     0.051 C 
HETATM   21  C   UNK     0      -7.668  -6.379  -2.838  0.00  0.00     0.115 C 
HETATM   22  C   UNK     0      -9.094  -6.726  -3.195  0.00  0.00     0.022 A 
HETATM   23  N   UNK     0     -10.100  -7.051  -2.372  0.00  0.00    -0.361 N 
HETATM   24  C   UNK     0     -11.231  -7.139  -3.101  0.00  0.00     0.021 A 
HETATM   25  C   UNK     0     -10.945  -6.874  -4.426  0.00  0.00    -0.031 A 
HETATM   26  C   UNK     0     -11.872  -6.891  -5.624  0.00  0.00     0.051 C 
HETATM   27  C   UNK     0      -9.583  -6.608  -4.511  0.00  0.00    -0.027 A 
HETATM   28  C   UNK     0     -12.643  -7.391  -2.599  0.00  0.00     0.115 C 
HETATM   29  H   UNK     0     -11.791  -6.575   0.100  0.00  0.00     0.165 HD
HETATM   30  H   UNK     0     -10.798  -3.354  -0.289  0.00  0.00     0.165 HD
HETATM   31  H   UNK     0      -9.104  -4.099  -1.610  0.00  0.00     0.165 HD
HETATM   32  H   UNK     0     -10.013  -7.264  -1.275  0.00  0.00     0.165 HD
ENDROOT
BRANCH   6  33
HETATM   33  C   UNK     0     -15.393  -3.591  -0.727  0.00  0.00     0.051 C 
BRANCH  33  34
HETATM   34  C   UNK     0     -14.864  -2.279  -1.254  0.00  0.00     0.114 C 
BRANCH  34  35
HETATM   35  C   UNK     0     -15.735  -1.871  -2.394  0.00  0.00     0.139 C 
HETATM   36  O   UNK     0     -15.443  -2.219  -3.575  0.00  0.00    -0.650 OA
BRANCH  35  37
HETATM   37  O   UNK     0     -16.884  -1.109  -2.223  0.00  0.00    -0.776 OA
HETATM   38  H   UNK     0     -17.786  -1.530  -2.065  0.00  0.00     0.167 HD
ENDBRANCH  35  37
ENDBRANCH  34  35
ENDBRANCH  33  34
ENDBRANCH   6  33
BRANCH  27  39
HETATM   39  C   UNK     0      -8.887  -6.346  -5.801  0.00  0.00     0.051 C 
BRANCH  39  40
HETATM   40  C   UNK     0      -8.385  -4.997  -6.057  0.00  0.00     0.114 C 
BRANCH  40  41
HETATM   41  C   UNK     0      -6.972  -4.701  -6.125  0.00  0.00     0.139 C 
HETATM   42  O   UNK     0      -6.176  -5.324  -6.842  0.00  0.00    -0.650 OA
BRANCH  41  43
HETATM   43  O   UNK     0      -6.449  -3.639  -5.333  0.00  0.00    -0.776 OA
HETATM   44  H   UNK     0      -5.817  -3.936  -4.599  0.00  0.00     0.167 HD
ENDBRANCH  41  43
ENDBRANCH  40  41
ENDBRANCH  39  40
ENDBRANCH  27  39
BRANCH  11  45
HETATM   45  C   UNK     0      -8.893  -3.475   4.053  0.00  0.00     0.051 C 
BRANCH  45  46
HETATM   46  C   UNK     0      -8.090  -4.704   4.276  0.00  0.00     0.114 C 
BRANCH  46  47
HETATM   47  C   UNK     0      -7.206  -4.448   5.448  0.00  0.00     0.139 C 
HETATM   48  O   UNK     0      -7.522  -4.928   6.545  0.00  0.00    -0.650 OA
BRANCH  47  49
HETATM   49  O   UNK     0      -6.066  -3.695   5.318  0.00  0.00    -0.776 OA
HETATM   50  H   UNK     0      -6.079  -2.670   5.385  0.00  0.00     0.167 HD
ENDBRANCH  47  49
ENDBRANCH  46  47
ENDBRANCH  45  46
ENDBRANCH  11  45
BRANCH  18  51
HETATM   51  C   UNK     0      -5.218  -6.708  -0.927  0.00  0.00     0.051 C 
BRANCH  51  52
HETATM   52  C   UNK     0      -4.171  -6.021  -1.792  0.00  0.00     0.114 C 
BRANCH  52  53
HETATM   53  C   UNK     0      -4.160  -6.554  -3.168  0.00  0.00     0.139 C 
HETATM   54  O   UNK     0      -4.340  -5.792  -4.131  0.00  0.00    -0.650 OA
BRANCH  53  55
HETATM   55  O   UNK     0      -3.952  -7.896  -3.375  0.00  0.00    -0.776 OA
HETATM   56  H   UNK     0      -4.578  -8.628  -3.135  0.00  0.00     0.167 HD
ENDBRANCH  53  55
ENDBRANCH  52  53
ENDBRANCH  51  52
ENDBRANCH  18  51
TORSDOF 16
ENDMDL
MODEL 16
REMARK VINA RESULT:      -7.5     35.162     36.850
REMARK  16 active torsions:
REMARK  status: ('A' for Active; 'I' for Inactive)
REMARK    1  A    between atoms: C_6  and  C_7 
REMARK    2  A    between atoms: C_7  and  C_8 
REMARK    3  A    between atoms: C_8  and  C_9 
REMARK    4  A    between atoms: C_9  and  O_11 
REMARK    5  A    between atoms: C_16  and  C_17 
REMARK    6  A    between atoms: C_17  and  C_18 
REMARK    7  A    between atoms: C_18  and  C_19 
REMARK    8  A    between atoms: C_19  and  O_21 
REMARK    9  A    between atoms: C_28  and  C_29 
REMARK   10  A    between atoms: C_29  and  C_30 
REMARK   11  A    between atoms: C_30  and  C_31 
REMARK   12  A    between atoms: C_31  and  O_33 
REMARK   13  A    between atoms: C_42  and  C_43 
REMARK   14  A    between atoms: C_43  and  C_44 
REMARK   15  A    between atoms: C_44  and  C_45 
REMARK   16  A    between atoms: C_45  and  O_47 
ROOT
HETATM    1  C   UNK     0     -23.443  -8.200  -1.700  0.00  0.00     0.051 C 
HETATM    2  C   UNK     0     -22.704  -7.075  -1.005  0.00  0.00    -0.031 A 
HETATM    3  C   UNK     0     -22.836  -5.705  -1.166  0.00  0.00     0.021 A 
HETATM    4  N   UNK     0     -21.948  -5.078  -0.358  0.00  0.00    -0.361 N 
HETATM    5  C   UNK     0     -21.260  -6.019   0.321  0.00  0.00     0.022 A 
HETATM    6  C   UNK     0     -21.706  -7.280  -0.061  0.00  0.00    -0.027 A 
HETATM    7  C   UNK     0     -20.236  -5.856   1.401  0.00  0.00     0.115 C 
HETATM    8  C   UNK     0     -20.524  -4.807   2.461  0.00  0.00     0.021 A 
HETATM    9  N   UNK     0     -21.706  -4.458   2.991  0.00  0.00    -0.361 N 
HETATM   10  C   UNK     0     -21.499  -3.419   3.828  0.00  0.00     0.022 A 
HETATM   11  C   UNK     0     -20.146  -3.097   3.845  0.00  0.00    -0.027 A 
HETATM   12  C   UNK     0     -19.525  -3.968   2.986  0.00  0.00    -0.031 A 
HETATM   13  C   UNK     0     -18.043  -3.995   2.688  0.00  0.00     0.051 C 
HETATM   14  C   UNK     0     -22.572  -2.657   4.602  0.00  0.00     0.115 C 
HETATM   15  C   UNK     0     -23.605  -1.979   3.717  0.00  0.00     0.021 A 
HETATM   16  N   UNK     0     -24.418  -2.557   2.812  0.00  0.00    -0.361 N 
HETATM   17  C   UNK     0     -25.127  -1.611   2.192  0.00  0.00     0.022 A 
HETATM   18  C   UNK     0     -24.767  -0.358   2.726  0.00  0.00    -0.027 A 
HETATM   19  C   UNK     0     -23.814  -0.602   3.680  0.00  0.00    -0.031 A 
HETATM   20  C   UNK     0     -23.175   0.480   4.532  0.00  0.00     0.051 C 
HETATM   21  C   UNK     0     -26.118  -1.727   1.056  0.00  0.00     0.115 C 
HETATM   22  C   UNK     0     -25.867  -2.796   0.018  0.00  0.00     0.022 A 
HETATM   23  N   UNK     0     -24.701  -3.168  -0.525  0.00  0.00    -0.361 N 
HETATM   24  C   UNK     0     -24.919  -4.253  -1.295  0.00  0.00     0.021 A 
HETATM   25  C   UNK     0     -26.261  -4.581  -1.255  0.00  0.00    -0.031 A 
HETATM   26  C   UNK     0     -26.993  -5.689  -1.983  0.00  0.00     0.051 C 
HETATM   27  C   UNK     0     -26.888  -3.662  -0.421  0.00  0.00    -0.027 A 
HETATM   28  C   UNK     0     -23.891  -5.087  -2.039  0.00  0.00     0.115 C 
HETATM   29  H   UNK     0     -21.786  -3.977  -0.302  0.00  0.00     0.165 HD
HETATM   30  H   UNK     0     -22.682  -4.974   2.815  0.00  0.00     0.165 HD
HETATM   31  H   UNK     0     -24.528  -3.659   2.640  0.00  0.00     0.165 HD
HETATM   32  H   UNK     0     -23.718  -2.641  -0.404  0.00  0.00     0.165 HD
ENDROOT
BRANCH   6  33
HETATM   33  C   UNK     0     -21.260  -8.646   0.394  0.00  0.00     0.051 C 
BRANCH  33  34
HETATM   34  C   UNK     0     -22.315  -9.293   1.260  0.00  0.00     0.114 C 
BRANCH  34  35
HETATM   35  C   UNK     0     -22.342  -8.556   2.556  0.00  0.00     0.139 C 
HETATM   36  O   UNK     0     -23.381  -7.928   2.911  0.00  0.00    -0.650 OA
BRANCH  35  37
HETATM   37  O   UNK     0     -21.255  -8.524   3.422  0.00  0.00    -0.776 OA
HETATM   38  H   UNK     0     -20.321  -8.326   3.101  0.00  0.00     0.167 HD
ENDBRANCH  35  37
ENDBRANCH  34  35
ENDBRANCH  33  34
ENDBRANCH   6  33
BRANCH  27  39
HETATM   39  C   UNK     0     -28.358  -3.652  -0.187  0.00  0.00     0.051 C 
BRANCH  39  40
HETATM   40  C   UNK     0     -29.163  -2.644  -0.876  0.00  0.00     0.114 C 
BRANCH  40  41
HETATM   41  C   UNK     0     -29.391  -1.328  -0.321  0.00  0.00     0.139 C 
HETATM   42  O   UNK     0     -29.668  -1.128   0.870  0.00  0.00    -0.650 OA
BRANCH  41  43
HETATM   43  O   UNK     0     -29.297  -0.192  -1.173  0.00  0.00    -0.776 OA
HETATM   44  H   UNK     0     -29.807  -0.278  -2.044  0.00  0.00     0.167 HD
ENDBRANCH  41  43
ENDBRANCH  40  41
ENDBRANCH  39  40
ENDBRANCH  27  39
BRANCH  11  45
HETATM   45  C   UNK     0     -19.443  -2.022   4.630  0.00  0.00     0.051 C 
BRANCH  45  46
HETATM   46  C   UNK     0     -18.971  -2.459   5.969  0.00  0.00     0.114 C 
BRANCH  46  47
HETATM   47  C   UNK     0     -19.737  -1.680   6.983  0.00  0.00     0.139 C 
HETATM   48  O   UNK     0     -20.632  -2.253   7.619  0.00  0.00    -0.650 OA
BRANCH  47  49
HETATM   49  O   UNK     0     -19.458  -0.355   7.208  0.00  0.00    -0.776 OA
HETATM   50  H   UNK     0     -19.802   0.141   8.038  0.00  0.00     0.167 HD
ENDBRANCH  47  49
ENDBRANCH  46  47
ENDBRANCH  45  46
ENDBRANCH  11  45
BRANCH  18  51
HETATM   51  C   UNK     0     -25.316   0.997   2.360  0.00  0.00     0.051 C 
BRANCH  51  52
HETATM   52  C   UNK     0     -26.194   1.429   3.525  0.00  0.00     0.114 C 
BRANCH  52  53
HETATM   53  C   UNK     0     -27.604   1.044   3.323  0.00  0.00     0.139 C 
HETATM   54  O   UNK     0     -28.302   0.710   4.293  0.00  0.00    -0.650 OA
BRANCH  53  55
HETATM   55  O   UNK     0     -28.137   1.056   2.057  0.00  0.00    -0.776 OA
HETATM   56  H   UNK     0     -29.098   0.969   1.827  0.00  0.00     0.167 HD
ENDBRANCH  53  55
ENDBRANCH  52  53
ENDBRANCH  51  52
ENDBRANCH  18  51
TORSDOF 16
ENDMDL
MODEL 17
REMARK VINA RESULT:      -7.5     35.014     37.074
REMARK  16 active torsions:
REMARK  status: ('A' for Active; 'I' for Inactive)
REMARK    1  A    between atoms: C_6  and  C_7 
REMARK    2  A    between atoms: C_7  and  C_8 
REMARK    3  A    between atoms: C_8  and  C_9 
REMARK    4  A    between atoms: C_9  and  O_11 
REMARK    5  A    between atoms: C_16  and  C_17 
REMARK    6  A    between atoms: C_17  and  C_18 
REMARK    7  A    between atoms: C_18  and  C_19 
REMARK    8  A    between atoms: C_19  and  O_21 
REMARK    9  A    between atoms: C_28  and  C_29 
REMARK   10  A    between atoms: C_29  and  C_30 
REMARK   11  A    between atoms: C_30  and  C_31 
REMARK   12  A    between atoms: C_31  and  O_33 
REMARK   13  A    between atoms: C_42  and  C_43 
REMARK   14  A    between atoms: C_43  and  C_44 
REMARK   15  A    between atoms: C_44  and  C_45 
REMARK   16  A    between atoms: C_45  and  O_47 
ROOT
HETATM    1  C   UNK     0     -19.568  -1.752   4.961  0.00  0.00     0.051 C 
HETATM    2  C   UNK     0     -20.284  -2.887   4.257  0.00  0.00    -0.031 A 
HETATM    3  C   UNK     0     -21.627  -3.227   4.278  0.00  0.00     0.021 A 
HETATM    4  N   UNK     0     -21.813  -4.338   3.526  0.00  0.00    -0.361 N 
HETATM    5  C   UNK     0     -20.619  -4.708   3.019  0.00  0.00     0.022 A 
HETATM    6  C   UNK     0     -19.640  -3.823   3.459  0.00  0.00    -0.027 A 
HETATM    7  C   UNK     0     -20.293  -5.806   2.055  0.00  0.00     0.115 C 
HETATM    8  C   UNK     0     -21.236  -5.983   0.879  0.00  0.00     0.021 A 
HETATM    9  N   UNK     0     -21.894  -5.041   0.185  0.00  0.00    -0.361 N 
HETATM   10  C   UNK     0     -22.690  -5.660  -0.712  0.00  0.00     0.022 A 
HETATM   11  C   UNK     0     -22.533  -7.039  -0.600  0.00  0.00    -0.027 A 
HETATM   12  C   UNK     0     -21.619  -7.249   0.400  0.00  0.00    -0.031 A 
HETATM   13  C   UNK     0     -21.133  -8.602   0.870  0.00  0.00     0.051 C 
HETATM   14  C   UNK     0     -23.665  -4.983  -1.671  0.00  0.00     0.115 C 
HETATM   15  C   UNK     0     -24.755  -4.182  -0.977  0.00  0.00     0.021 A 
HETATM   16  N   UNK     0     -24.601  -3.152  -0.125  0.00  0.00    -0.361 N 
HETATM   17  C   UNK     0     -25.800  -2.768   0.320  0.00  0.00     0.022 A 
HETATM   18  C   UNK     0     -26.783  -3.582  -0.278  0.00  0.00    -0.027 A 
HETATM   19  C   UNK     0     -26.115  -4.462  -1.090  0.00  0.00    -0.031 A 
HETATM   20  C   UNK     0     -26.805  -5.501  -1.955  0.00  0.00     0.051 C 
HETATM   21  C   UNK     0     -26.166  -1.713   1.339  0.00  0.00     0.115 C 
HETATM   22  C   UNK     0     -25.214  -1.495   2.491  0.00  0.00     0.022 A 
HETATM   23  N   UNK     0     -24.542  -2.414   3.198  0.00  0.00    -0.361 N 
HETATM   24  C   UNK     0     -23.699  -1.773   4.032  0.00  0.00     0.021 A 
HETATM   25  C   UNK     0     -23.838  -0.408   3.865  0.00  0.00    -0.031 A 
HETATM   26  C   UNK     0     -23.140   0.717   4.600  0.00  0.00     0.051 C 
HETATM   27  C   UNK     0     -24.802  -0.206   2.885  0.00  0.00    -0.027 A 
HETATM   28  C   UNK     0     -22.668  -2.387   4.963  0.00  0.00     0.115 C 
HETATM   29  H   UNK     0     -22.780  -4.875   3.390  0.00  0.00     0.165 HD
HETATM   30  H   UNK     0     -21.761  -3.937   0.292  0.00  0.00     0.165 HD
HETATM   31  H   UNK     0     -23.631  -2.653   0.132  0.00  0.00     0.165 HD
HETATM   32  H   UNK     0     -24.689  -3.524   3.145  0.00  0.00     0.165 HD
ENDROOT
BRANCH   6  33
HETATM   33  C   UNK     0     -18.157  -3.802   3.184  0.00  0.00     0.051 C 
BRANCH  33  34
HETATM   34  C   UNK     0     -17.413  -4.634   4.201  0.00  0.00     0.114 C 
BRANCH  34  35
HETATM   35  C   UNK     0     -16.228  -3.844   4.643  0.00  0.00     0.139 C 
HETATM   36  O   UNK     0     -15.062  -4.197   4.297  0.00  0.00    -0.650 OA
BRANCH  35  37
HETATM   37  O   UNK     0     -16.338  -2.708   5.434  0.00  0.00    -0.776 OA
HETATM   38  H   UNK     0     -17.096  -2.053   5.326  0.00  0.00     0.167 HD
ENDBRANCH  35  37
ENDBRANCH  34  35
ENDBRANCH  33  34
ENDBRANCH   6  33
BRANCH  27  39
HETATM   39  C   UNK     0     -25.277   1.146   2.481  0.00  0.00     0.051 C 
BRANCH  39  40
HETATM   40  C   UNK     0     -26.346   1.767   3.262  0.00  0.00     0.114 C 
BRANCH  40  41
HETATM   41  C   UNK     0     -27.726   1.351   3.147  0.00  0.00     0.139 C 
HETATM   42  O   UNK     0     -28.487   1.232   4.117  0.00  0.00    -0.650 OA
BRANCH  41  43
HETATM   43  O   UNK     0     -28.254   1.057   1.858  0.00  0.00    -0.776 OA
HETATM   44  H   UNK     0     -28.020   0.135   1.510  0.00  0.00     0.167 HD
ENDBRANCH  41  43
ENDBRANCH  40  41
ENDBRANCH  39  40
ENDBRANCH  27  39
BRANCH  11  45
HETATM   45  C   UNK     0     -23.203  -8.130  -1.391  0.00  0.00     0.051 C 
BRANCH  45  46
HETATM   46  C   UNK     0     -24.578  -8.453  -0.934  0.00  0.00     0.114 C 
BRANCH  46  47
HETATM   47  C   UNK     0     -24.715  -9.938  -0.960  0.00  0.00     0.139 C 
HETATM   48  O   UNK     0     -25.852 -10.428  -0.964  0.00  0.00    -0.650 OA
BRANCH  47  49
HETATM   49  O   UNK     0     -23.605 -10.745  -0.977  0.00  0.00    -0.776 OA
HETATM   50  H   UNK     0     -23.581 -11.628  -1.501  0.00  0.00     0.167 HD
ENDBRANCH  47  49
ENDBRANCH  46  47
ENDBRANCH  45  46
ENDBRANCH  11  45
BRANCH  18  51
HETATM   51  C   UNK     0     -28.277  -3.509  -0.103  0.00  0.00     0.051 C 
BRANCH  51  52
HETATM   52  C   UNK     0     -28.771  -2.460  -1.088  0.00  0.00     0.114 C 
BRANCH  52  53
HETATM   53  C   UNK     0     -29.216  -1.230  -0.404  0.00  0.00     0.139 C 
HETATM   54  O   UNK     0     -29.687  -1.293   0.743  0.00  0.00    -0.650 OA
BRANCH  53  55
HETATM   55  O   UNK     0     -29.107  -0.020  -1.044  0.00  0.00    -0.776 OA
HETATM   56  H   UNK     0     -29.106   0.124  -2.026  0.00  0.00     0.167 HD
ENDBRANCH  53  55
ENDBRANCH  52  53
ENDBRANCH  51  52
ENDBRANCH  18  51
TORSDOF 16
ENDMDL
MODEL 18
REMARK VINA RESULT:      -7.4     26.344     29.349
REMARK  16 active torsions:
REMARK  status: ('A' for Active; 'I' for Inactive)
REMARK    1  A    between atoms: C_6  and  C_7 
REMARK    2  A    between atoms: C_7  and  C_8 
REMARK    3  A    between atoms: C_8  and  C_9 
REMARK    4  A    between atoms: C_9  and  O_11 
REMARK    5  A    between atoms: C_16  and  C_17 
REMARK    6  A    between atoms: C_17  and  C_18 
REMARK    7  A    between atoms: C_18  and  C_19 
REMARK    8  A    between atoms: C_19  and  O_21 
REMARK    9  A    between atoms: C_28  and  C_29 
REMARK   10  A    between atoms: C_29  and  C_30 
REMARK   11  A    between atoms: C_30  and  C_31 
REMARK   12  A    between atoms: C_31  and  O_33 
REMARK   13  A    between atoms: C_42  and  C_43 
REMARK   14  A    between atoms: C_43  and  C_44 
REMARK   15  A    between atoms: C_44  and  C_45 
REMARK   16  A    between atoms: C_45  and  O_47 
ROOT
HETATM    1  C   UNK     0      19.564  14.771  -2.216  0.00  0.00     0.051 C 
HETATM    2  C   UNK     0      19.756  15.155  -3.669  0.00  0.00    -0.031 A 
HETATM    3  C   UNK     0      18.985  14.832  -4.774  0.00  0.00     0.021 A 
HETATM    4  N   UNK     0      19.553  15.369  -5.880  0.00  0.00    -0.361 N 
HETATM    5  C   UNK     0      20.664  16.034  -5.503  0.00  0.00     0.022 A 
HETATM    6  C   UNK     0      20.823  15.918  -4.126  0.00  0.00    -0.027 A 
HETATM    7  C   UNK     0      21.595  16.874  -6.321  0.00  0.00     0.115 C 
HETATM    8  C   UNK     0      20.957  17.812  -7.330  0.00  0.00     0.021 A 
HETATM    9  N   UNK     0      19.808  18.497  -7.225  0.00  0.00    -0.361 N 
HETATM   10  C   UNK     0      19.588  19.129  -8.397  0.00  0.00     0.022 A 
HETATM   11  C   UNK     0      20.629  18.852  -9.278  0.00  0.00    -0.027 A 
HETATM   12  C   UNK     0      21.495  18.023  -8.612  0.00  0.00    -0.031 A 
HETATM   13  C   UNK     0      22.781  17.464  -9.180  0.00  0.00     0.051 C 
HETATM   14  C   UNK     0      18.367  19.974  -8.751  0.00  0.00     0.115 C 
HETATM   15  C   UNK     0      17.054  19.208  -8.703  0.00  0.00     0.021 A 
HETATM   16  N   UNK     0      16.520  18.557  -7.653  0.00  0.00    -0.361 N 
HETATM   17  C   UNK     0      15.394  17.953  -8.037  0.00  0.00     0.022 A 
HETATM   18  C   UNK     0      15.178  18.232  -9.402  0.00  0.00    -0.027 A 
HETATM   19  C   UNK     0      16.224  19.019  -9.806  0.00  0.00    -0.031 A 
HETATM   20  C   UNK     0      16.365  19.580 -11.210  0.00  0.00     0.051 C 
HETATM   21  C   UNK     0      14.464  17.046  -7.263  0.00  0.00     0.115 C 
HETATM   22  C   UNK     0      15.081  16.138  -6.225  0.00  0.00     0.022 A 
HETATM   23  N   UNK     0      16.225  15.447  -6.301  0.00  0.00    -0.361 N 
HETATM   24  C   UNK     0      16.464  14.889  -5.097  0.00  0.00     0.021 A 
HETATM   25  C   UNK     0      15.442  15.219  -4.228  0.00  0.00    -0.031 A 
HETATM   26  C   UNK     0      15.244  14.800  -2.786  0.00  0.00     0.051 C 
HETATM   27  C   UNK     0      14.545  16.018  -4.927  0.00  0.00    -0.027 A 
HETATM   28  C   UNK     0      17.683  14.091  -4.668  0.00  0.00     0.115 C 
HETATM   29  H   UNK     0      19.186  15.240  -6.925  0.00  0.00     0.165 HD
HETATM   30  H   UNK     0      19.175  18.577  -6.307  0.00  0.00     0.165 HD
HETATM   31  H   UNK     0      16.921  18.563  -6.606  0.00  0.00     0.165 HD
HETATM   32  H   UNK     0      16.855  15.311  -7.219  0.00  0.00     0.165 HD
ENDROOT
BRANCH   6  33
HETATM   33  C   UNK     0      21.898  16.469  -3.224  0.00  0.00     0.051 C 
BRANCH  33  34
HETATM   34  C   UNK     0      22.961  15.428  -2.961  0.00  0.00     0.114 C 
BRANCH  34  35
HETATM   35  C   UNK     0      23.137  15.335  -1.483  0.00  0.00     0.139 C 
HETATM   36  O   UNK     0      22.520  16.129  -0.716  0.00  0.00    -0.650 OA
BRANCH  35  37
HETATM   37  O   UNK     0      23.966  14.393  -0.886  0.00  0.00    -0.776 OA
HETATM   38  H   UNK     0      23.709  13.917  -0.036  0.00  0.00     0.167 HD
ENDBRANCH  35  37
ENDBRANCH  34  35
ENDBRANCH  33  34
ENDBRANCH   6  33
BRANCH  27  39
HETATM   39  C   UNK     0      13.272  16.515  -4.337  0.00  0.00     0.051 C 
BRANCH  39  40
HETATM   40  C   UNK     0      12.037  15.792  -4.643  0.00  0.00     0.114 C 
BRANCH  40  41
HETATM   41  C   UNK     0      11.439  15.812  -5.959  0.00  0.00     0.139 C 
HETATM   42  O   UNK     0      11.519  14.871  -6.760  0.00  0.00    -0.650 OA
BRANCH  41  43
HETATM   43  O   UNK     0      10.715  16.966  -6.372  0.00  0.00    -0.776 OA
HETATM   44  H   UNK     0       9.843  17.113  -5.879  0.00  0.00     0.167 HD
ENDBRANCH  41  43
ENDBRANCH  40  41
ENDBRANCH  39  40
ENDBRANCH  27  39
BRANCH  11  45
HETATM   45  C   UNK     0      20.823  19.337 -10.690  0.00  0.00     0.051 C 
BRANCH  45  46
HETATM   46  C   UNK     0      21.620  20.586 -10.797  0.00  0.00     0.114 C 
BRANCH  46  47
HETATM   47  C   UNK     0      22.629  20.374 -11.874  0.00  0.00     0.139 C 
HETATM   48  O   UNK     0      23.791  20.090 -11.550  0.00  0.00    -0.650 OA
BRANCH  47  49
HETATM   49  O   UNK     0      22.281  20.491 -13.196  0.00  0.00    -0.776 OA
HETATM   50  H   UNK     0      22.524  21.319 -13.752  0.00  0.00     0.167 HD
ENDBRANCH  47  49
ENDBRANCH  46  47
ENDBRANCH  45  46
ENDBRANCH  11  45
BRANCH  18  51
HETATM   51  C   UNK     0      14.027  17.789 -10.267  0.00  0.00     0.051 C 
BRANCH  51  52
HETATM   52  C   UNK     0      12.936  18.835 -10.091  0.00  0.00     0.114 C 
BRANCH  52  53
HETATM   53  C   UNK     0      11.813  18.327  -9.279  0.00  0.00     0.139 C 
HETATM   54  O   UNK     0      11.140  19.110  -8.591  0.00  0.00    -0.650 OA
BRANCH  53  55
HETATM   55  O   UNK     0      11.521  16.985  -9.287  0.00  0.00    -0.776 OA
HETATM   56  H   UNK     0      12.156  16.248  -9.090  0.00  0.00     0.167 HD
ENDBRANCH  53  55
ENDBRANCH  52  53
ENDBRANCH  51  52
ENDBRANCH  18  51
TORSDOF 16
ENDMDL
MODEL 19
REMARK VINA RESULT:      -7.4     12.666     16.598
REMARK  16 active torsions:
REMARK  status: ('A' for Active; 'I' for Inactive)
REMARK    1  A    between atoms: C_6  and  C_7 
REMARK    2  A    between atoms: C_7  and  C_8 
REMARK    3  A    between atoms: C_8  and  C_9 
REMARK    4  A    between atoms: C_9  and  O_11 
REMARK    5  A    between atoms: C_16  and  C_17 
REMARK    6  A    between atoms: C_17  and  C_18 
REMARK    7  A    between atoms: C_18  and  C_19 
REMARK    8  A    between atoms: C_19  and  O_21 
REMARK    9  A    between atoms: C_28  and  C_29 
REMARK   10  A    between atoms: C_29  and  C_30 
REMARK   11  A    between atoms: C_30  and  C_31 
REMARK   12  A    between atoms: C_31  and  O_33 
REMARK   13  A    between atoms: C_42  and  C_43 
REMARK   14  A    between atoms: C_43  and  C_44 
REMARK   15  A    between atoms: C_44  and  C_45 
REMARK   16  A    between atoms: C_45  and  O_47 
ROOT
HETATM    1  C   UNK     0       3.736  -9.198 -19.308  0.00  0.00     0.051 C 
HETATM    2  C   UNK     0       3.874  -9.928 -17.988  0.00  0.00    -0.031 A 
HETATM    3  C   UNK     0       3.753  -9.440 -16.696  0.00  0.00     0.021 A 
HETATM    4  N   UNK     0       3.988 -10.446 -15.821  0.00  0.00    -0.361 N 
HETATM    5  C   UNK     0       4.247 -11.566 -16.526  0.00  0.00     0.022 A 
HETATM    6  C   UNK     0       4.187 -11.277 -17.886  0.00  0.00    -0.027 A 
HETATM    7  C   UNK     0       4.477 -12.964 -16.043  0.00  0.00     0.115 C 
HETATM    8  C   UNK     0       3.569 -13.459 -14.931  0.00  0.00     0.021 A 
HETATM    9  N   UNK     0       2.270 -13.188 -14.730  0.00  0.00    -0.361 N 
HETATM   10  C   UNK     0       1.895 -13.768 -13.570  0.00  0.00     0.022 A 
HETATM   11  C   UNK     0       2.980 -14.438 -13.013  0.00  0.00    -0.027 A 
HETATM   12  C   UNK     0       4.038 -14.248 -13.866  0.00  0.00    -0.031 A 
HETATM   13  C   UNK     0       5.431 -14.803 -13.668  0.00  0.00     0.051 C 
HETATM   14  C   UNK     0       0.520 -13.669 -12.916  0.00  0.00     0.115 C 
HETATM   15  C   UNK     0       0.111 -12.250 -12.555  0.00  0.00     0.021 A 
HETATM   16  N   UNK     0      -0.012 -11.195 -13.382  0.00  0.00    -0.361 N 
HETATM   17  C   UNK     0      -0.322 -10.111 -12.668  0.00  0.00     0.022 A 
HETATM   18  C   UNK     0      -0.416 -10.479 -11.311  0.00  0.00    -0.027 A 
HETATM   19  C   UNK     0      -0.144 -11.821 -11.254  0.00  0.00    -0.031 A 
HETATM   20  C   UNK     0      -0.174 -12.635  -9.973  0.00  0.00     0.051 C 
HETATM   21  C   UNK     0      -0.498  -8.675 -13.107  0.00  0.00     0.115 C 
HETATM   22  C   UNK     0       0.369  -8.182 -14.242  0.00  0.00     0.022 A 
HETATM   23  N   UNK     0       1.664  -8.439 -14.469  0.00  0.00    -0.361 N 
HETATM   24  C   UNK     0       1.995  -7.918 -15.668  0.00  0.00     0.021 A 
HETATM   25  C   UNK     0       0.889  -7.301 -16.221  0.00  0.00    -0.031 A 
HETATM   26  C   UNK     0       0.774  -6.544 -17.528  0.00  0.00     0.051 C 
HETATM   27  C   UNK     0      -0.164  -7.456 -15.326  0.00  0.00    -0.027 A 
HETATM   28  C   UNK     0       3.323  -8.032 -16.396  0.00  0.00     0.115 C 
HETATM   29  H   UNK     0       4.008 -10.349 -14.711  0.00  0.00     0.165 HD
HETATM   30  H   UNK     0       1.601 -12.630 -15.430  0.00  0.00     0.165 HD
HETATM   31  H   UNK     0       0.076 -11.224 -14.500  0.00  0.00     0.165 HD
HETATM   32  H   UNK     0       2.368  -8.954 -13.765  0.00  0.00     0.165 HD
ENDROOT
BRANCH   6  33
HETATM   33  C   UNK     0       4.403 -12.173 -19.079  0.00  0.00     0.051 C 
BRANCH  33  34
HETATM   34  C   UNK     0       5.870 -12.491 -19.250  0.00  0.00     0.114 C 
BRANCH  34  35
HETATM   35  C   UNK     0       5.966 -13.878 -19.790  0.00  0.00     0.139 C 
HETATM   36  O   UNK     0       5.792 -14.872 -19.027  0.00  0.00    -0.650 OA
BRANCH  35  37
HETATM   37  O   UNK     0       6.241 -14.144 -21.125  0.00  0.00    -0.776 OA
HETATM   38  H   UNK     0       5.985 -13.506 -21.862  0.00  0.00     0.167 HD
ENDBRANCH  35  37
ENDBRANCH  34  35
ENDBRANCH  33  34
ENDBRANCH   6  33
BRANCH  27  39
HETATM   39  C   UNK     0      -1.509  -6.860 -15.546  0.00  0.00     0.051 C 
BRANCH  39  40
HETATM   40  C   UNK     0      -1.695  -5.440 -15.250  0.00  0.00     0.114 C 
BRANCH  40  41
HETATM   41  C   UNK     0      -1.644  -4.921 -13.901  0.00  0.00     0.139 C 
HETATM   42  O   UNK     0      -2.109  -5.519 -12.921  0.00  0.00    -0.650 OA
BRANCH  41  43
HETATM   43  O   UNK     0      -1.031  -3.657 -13.669  0.00  0.00    -0.776 OA
HETATM   44  H   UNK     0      -0.295  -3.423 -14.324  0.00  0.00     0.167 HD
ENDBRANCH  41  43
ENDBRANCH  40  41
ENDBRANCH  39  40
ENDBRANCH  27  39
BRANCH  11  45
HETATM   45  C   UNK     0       3.042 -15.233 -11.737  0.00  0.00     0.051 C 
BRANCH  45  46
HETATM   46  C   UNK     0       2.654 -16.658 -11.890  0.00  0.00     0.114 C 
BRANCH  46  47
HETATM   47  C   UNK     0       1.609 -16.944 -10.866  0.00  0.00     0.139 C 
HETATM   48  O   UNK     0       1.118 -15.994 -10.239  0.00  0.00    -0.650 OA
BRANCH  47  49
HETATM   49  O   UNK     0       1.199 -18.230 -10.621  0.00  0.00    -0.776 OA
HETATM   50  H   UNK     0       0.333 -18.612 -11.020  0.00  0.00     0.167 HD
ENDBRANCH  47  49
ENDBRANCH  46  47
ENDBRANCH  45  46
ENDBRANCH  11  45
BRANCH  18  51
HETATM   51  C   UNK     0      -0.767  -9.604 -10.136  0.00  0.00     0.051 C 
BRANCH  51  52
HETATM   52  C   UNK     0       0.551  -9.077  -9.588  0.00  0.00     0.114 C 
BRANCH  52  53
HETATM   53  C   UNK     0       0.577  -7.603  -9.543  0.00  0.00     0.139 C 
HETATM   54  O   UNK     0      -0.411  -6.952  -9.917  0.00  0.00    -0.650 OA
BRANCH  53  55
HETATM   55  O   UNK     0       1.701  -6.957  -9.087  0.00  0.00    -0.776 OA
HETATM   56  H   UNK     0       1.828  -5.974  -9.033  0.00  0.00     0.167 HD
ENDBRANCH  53  55
ENDBRANCH  52  53
ENDBRANCH  51  52
ENDBRANCH  18  51
TORSDOF 16
ENDMDL
MODEL 20
REMARK VINA RESULT:      -7.3     25.778     29.236
REMARK  16 active torsions:
REMARK  status: ('A' for Active; 'I' for Inactive)
REMARK    1  A    between atoms: C_6  and  C_7 
REMARK    2  A    between atoms: C_7  and  C_8 
REMARK    3  A    between atoms: C_8  and  C_9 
REMARK    4  A    between atoms: C_9  and  O_11 
REMARK    5  A    between atoms: C_16  and  C_17 
REMARK    6  A    between atoms: C_17  and  C_18 
REMARK    7  A    between atoms: C_18  and  C_19 
REMARK    8  A    between atoms: C_19  and  O_21 
REMARK    9  A    between atoms: C_28  and  C_29 
REMARK   10  A    between atoms: C_29  and  C_30 
REMARK   11  A    between atoms: C_30  and  C_31 
REMARK   12  A    between atoms: C_31  and  O_33 
REMARK   13  A    between atoms: C_42  and  C_43 
REMARK   14  A    between atoms: C_43  and  C_44 
REMARK   15  A    between atoms: C_44  and  C_45 
REMARK   16  A    between atoms: C_45  and  O_47 
ROOT
HETATM    1  C   UNK     0      21.040  18.886 -10.449  0.00  0.00     0.051 C 
HETATM    2  C   UNK     0      20.854  18.368  -9.038  0.00  0.00    -0.031 A 
HETATM    3  C   UNK     0      19.935  18.751  -8.074  0.00  0.00     0.021 A 
HETATM    4  N   UNK     0      20.157  18.039  -6.944  0.00  0.00    -0.361 N 
HETATM    5  C   UNK     0      21.192  17.204  -7.170  0.00  0.00     0.022 A 
HETATM    6  C   UNK     0      21.654  17.386  -8.469  0.00  0.00    -0.027 A 
HETATM    7  C   UNK     0      21.773  16.146  -6.284  0.00  0.00     0.115 C 
HETATM    8  C   UNK     0      20.786  15.275  -5.526  0.00  0.00     0.021 A 
HETATM    9  N   UNK     0      19.585  14.830  -5.926  0.00  0.00    -0.361 N 
HETATM   10  C   UNK     0      19.019  14.168  -4.894  0.00  0.00     0.022 A 
HETATM   11  C   UNK     0      19.883  14.179  -3.804  0.00  0.00    -0.027 A 
HETATM   12  C   UNK     0      20.999  14.874  -4.195  0.00  0.00    -0.031 A 
HETATM   13  C   UNK     0      22.212  15.137  -3.332  0.00  0.00     0.051 C 
HETATM   14  C   UNK     0      17.625  13.548  -4.878  0.00  0.00     0.115 C 
HETATM   15  C   UNK     0      16.502  14.550  -5.095  0.00  0.00     0.021 A 
HETATM   16  N   UNK     0      16.320  15.364  -6.151  0.00  0.00    -0.361 N 
HETATM   17  C   UNK     0      15.258  16.141  -5.928  0.00  0.00     0.022 A 
HETATM   18  C   UNK     0      14.716  15.811  -4.670  0.00  0.00    -0.027 A 
HETATM   19  C   UNK     0      15.504  14.812  -4.159  0.00  0.00    -0.031 A 
HETATM   20  C   UNK     0      15.248  14.135  -2.825  0.00  0.00     0.051 C 
HETATM   21  C   UNK     0      14.681  17.262  -6.763  0.00  0.00     0.115 C 
HETATM   22  C   UNK     0      15.648  18.109  -7.557  0.00  0.00     0.022 A 
HETATM   23  N   UNK     0      16.852  18.563  -7.186  0.00  0.00    -0.361 N 
HETATM   24  C   UNK     0      17.430  19.151  -8.253  0.00  0.00     0.021 A 
HETATM   25  C   UNK     0      16.573  19.083  -9.334  0.00  0.00    -0.031 A 
HETATM   26  C   UNK     0      16.757  19.636 -10.733  0.00  0.00     0.051 C 
HETATM   27  C   UNK     0      15.425  18.421  -8.914  0.00  0.00    -0.027 A 
HETATM   28  C   UNK     0      18.830  19.732  -8.349  0.00  0.00     0.115 C 
HETATM   29  H   UNK     0      19.607  18.159  -5.982  0.00  0.00     0.165 HD
HETATM   30  H   UNK     0      19.155  14.938  -6.951  0.00  0.00     0.165 HD
HETATM   31  H   UNK     0      16.925  15.358  -7.095  0.00  0.00     0.165 HD
HETATM   32  H   UNK     0      17.288  18.510  -6.155  0.00  0.00     0.165 HD
ENDROOT
BRANCH   6  33
HETATM   33  C   UNK     0      22.785  16.707  -9.201  0.00  0.00     0.051 C 
BRANCH  33  34
HETATM   34  C   UNK     0      24.111  17.324  -8.825  0.00  0.00     0.114 C 
BRANCH  34  35
HETATM   35  C   UNK     0      25.023  16.213  -8.428  0.00  0.00     0.139 C 
HETATM   36  O   UNK     0      26.267  16.419  -8.314  0.00  0.00    -0.650 OA
BRANCH  35  37
HETATM   37  O   UNK     0      24.568  14.927  -8.165  0.00  0.00    -0.776 OA
HETATM   38  H   UNK     0      25.057  14.303  -7.545  0.00  0.00     0.167 HD
ENDBRANCH  35  37
ENDBRANCH  34  35
ENDBRANCH  33  34
ENDBRANCH   6  33
BRANCH  27  39
HETATM   39  C   UNK     0      14.239  18.219  -9.789  0.00  0.00     0.051 C 
BRANCH  39  40
HETATM   40  C   UNK     0      13.087  19.103  -9.612  0.00  0.00     0.114 C 
BRANCH  40  41
HETATM   41  C   UNK     0      11.936  18.720  -8.826  0.00  0.00     0.139 C 
HETATM   42  O   UNK     0      11.034  17.984  -9.249  0.00  0.00    -0.650 OA
BRANCH  41  43
HETATM   43  O   UNK     0      11.816  19.205  -7.493  0.00  0.00    -0.776 OA
HETATM   44  H   UNK     0      11.374  18.560  -6.850  0.00  0.00     0.167 HD
ENDBRANCH  41  43
ENDBRANCH  40  41
ENDBRANCH  39  40
ENDBRANCH  27  39
BRANCH  11  45
HETATM   45  C   UNK     0      19.690  13.565  -2.443  0.00  0.00     0.051 C 
BRANCH  45  46
HETATM   46  C   UNK     0      18.754  14.315  -1.567  0.00  0.00     0.114 C 
BRANCH  46  47
HETATM   47  C   UNK     0      18.517  13.480  -0.355  0.00  0.00     0.139 C 
HETATM   48  O   UNK     0      17.405  12.956  -0.205  0.00  0.00    -0.650 OA
BRANCH  47  49
HETATM   49  O   UNK     0      19.509  13.295   0.575  0.00  0.00    -0.776 OA
HETATM   50  H   UNK     0      19.323  13.330   1.585  0.00  0.00     0.167 HD
ENDBRANCH  47  49
ENDBRANCH  46  47
ENDBRANCH  45  46
ENDBRANCH  11  45
BRANCH  18  51
HETATM   51  C   UNK     0      13.502  16.400  -4.001  0.00  0.00     0.051 C 
BRANCH  51  52
HETATM   52  C   UNK     0      12.297  15.697  -4.608  0.00  0.00     0.114 C 
BRANCH  52  53
HETATM   53  C   UNK     0      11.436  16.630  -5.359  0.00  0.00     0.139 C 
HETATM   54  O   UNK     0      11.066  17.693  -4.834  0.00  0.00    -0.650 OA
BRANCH  53  55
HETATM   55  O   UNK     0      11.044  16.315  -6.637  0.00  0.00    -0.776 OA
HETATM   56  H   UNK     0      10.757  16.960  -7.336  0.00  0.00     0.167 HD
ENDBRANCH  53  55
ENDBRANCH  52  53
ENDBRANCH  51  52
ENDBRANCH  18  51
TORSDOF 16
ENDMDL
