MODEL 1
REMARK VINA RESULT:      -9.6      0.000      0.000
REMARK  28 active torsions:
REMARK  status: ('A' for Active; 'I' for Inactive)
REMARK    1  A    between atoms: C_2  and  O_3 
REMARK    2  A    between atoms: C_2  and  C_4 
REMARK    3  A    between atoms: C_4  and  C_5 
REMARK    4  A    between atoms: C_5  and  C_6 
REMARK    5  A    between atoms: C_7  and  C_8 
REMARK    6  A    between atoms: C_8  and  C_9 
REMARK    7  A    between atoms: C_9  and  O_11 
REMARK    8  A    between atoms: C_28  and  C_29 
REMARK    9  A    between atoms: C_29  and  C_30 
REMARK   10  A    between atoms: C_30  and  O_32 
REMARK   11  A    between atoms: C_33  and  C_34 
REMARK   12  A    between atoms: C_34  and  C_35 
REMARK   13  A    between atoms: C_35  and  C_36 
REMARK   14  A    between atoms: C_36  and  O_38 
REMARK   15  A    between atoms: C_39  and  C_40 
REMARK   16  A    between atoms: C_40  and  C_41 
REMARK   17  A    between atoms: C_41  and  C_42 
REMARK   18  A    between atoms: C_42  and  O_44 
REMARK   19  A    between atoms: C_45  and  C_46 
REMARK   20  A    between atoms: C_46  and  C_47 
REMARK   21  A    between atoms: C_47  and  O_49 
REMARK   22  A    between atoms: C_50  and  C_51 
REMARK   23  A    between atoms: C_51  and  C_52 
REMARK   24  A    between atoms: C_52  and  O_54 
REMARK   25  A    between atoms: C_55  and  C_56 
REMARK   26  A    between atoms: C_56  and  C_57 
REMARK   27  A    between atoms: C_57  and  C_58 
REMARK   28  A    between atoms: C_58  and  O_60 
ROOT
ATOM      1  O   UNK d   0     -26.105 -14.098  23.804  0.00  0.00    -0.650 OA
ATOM      2  C   UNK d   0     -25.066 -14.714  24.128  0.00  0.00     0.139 C 
ENDROOT
BRANCH   2   3
ATOM      3  O   UNK d   0     -23.966 -14.005  24.548  0.00  0.00    -0.776 OA
ATOM      4  H   UNK d   0     -23.156 -13.876  23.938  0.00  0.00     0.167 HD
ENDBRANCH   2   3
BRANCH   2   5
ATOM      5  C   UNK d   0     -25.025 -16.202  24.057  0.00  0.00     0.115 C 
BRANCH   5   6
ATOM      6  C   UNK d   0     -24.150 -16.642  22.914  0.00  0.00     0.052 C 
BRANCH   6   7
ATOM      7  C   UNK d   0     -23.159 -17.707  23.317  0.00  0.00    -0.020 A 
ATOM      8  C   UNK d   0     -22.072 -17.557  24.030  0.00  0.00    -0.011 A 
ATOM      9  C   UNK d   0     -21.436 -18.858  24.151  0.00  0.00     0.067 A 
ATOM     10  C   UNK d   0     -20.292 -19.371  24.782  0.00  0.00     0.062 C 
ATOM     11  N   UNK d   0     -22.200 -19.742  23.476  0.00  0.00    -0.248 NA
ATOM     12  C   UNK d   0     -19.987 -20.716  25.021  0.00  0.00     0.041 A 
ATOM     13  N   UNK d   0     -20.112 -21.805  24.239  0.00  0.00    -0.355 N 
ATOM     14  C   UNK d   0     -19.513 -21.091  26.291  0.00  0.00    -0.022 A 
ATOM     15  C   UNK d   0     -19.737 -22.863  24.983  0.00  0.00     0.042 A 
ATOM     16  H   UNK d   0     -20.441 -21.824  23.176  0.00  0.00     0.166 HD
ATOM     17  C   UNK d   0     -19.675 -24.233  24.657  0.00  0.00     0.062 C 
ATOM     18  C   UNK d   0     -19.355 -22.455  26.275  0.00  0.00    -0.013 A 
ATOM     19  C   UNK d   0     -20.594 -25.003  23.992  0.00  0.00     0.067 A 
ATOM     20  N   UNK d   0     -21.599 -24.362  23.391  0.00  0.00    -0.248 NA
ATOM     21  C   UNK d   0     -20.794 -26.424  23.760  0.00  0.00    -0.011 A 
ATOM     22  C   UNK d   0     -22.442 -25.260  22.783  0.00  0.00     0.066 A 
ATOM     23  C   UNK d   0     -23.515 -24.724  22.085  0.00  0.00     0.062 C 
ATOM     24  C   UNK d   0     -21.879 -26.568  23.055  0.00  0.00    -0.020 A 
ATOM     25  C   UNK d   0     -23.796 -23.370  21.847  0.00  0.00     0.041 A 
ATOM     26  N   UNK d   0     -23.686 -22.289  22.628  0.00  0.00    -0.355 N 
ATOM     27  C   UNK d   0     -24.267 -22.993  20.570  0.00  0.00    -0.022 A 
ATOM     28  C   UNK d   0     -24.068 -21.234  21.892  0.00  0.00     0.042 A 
ATOM     29  H   UNK d   0     -23.366 -22.274  23.699  0.00  0.00     0.166 HD
ATOM     30  C   UNK d   0     -24.143 -19.868  22.206  0.00  0.00     0.062 C 
ATOM     31  C   UNK d   0     -24.441 -21.644  20.590  0.00  0.00    -0.013 A 
ATOM     32  C   UNK d   0     -23.253 -19.112  22.951  0.00  0.00     0.066 A 
BRANCH   8  33
ATOM     33  C   UNK d   0     -21.561 -16.302  24.612  0.00  0.00     0.151 C 
BRANCH  33  34
ATOM     34  C   UNK d   0     -21.692 -16.258  26.080  0.00  0.00     0.143 C 
ATOM     35  O   UNK d   0     -22.722 -15.824  26.614  0.00  0.00    -0.650 OA
BRANCH  34  36
ATOM     36  O   UNK d   0     -20.654 -16.706  26.864  0.00  0.00    -0.776 OA
ATOM     37  H   UNK d   0     -20.807 -17.400  27.608  0.00  0.00     0.167 HD
ENDBRANCH  34  36
ENDBRANCH  33  34
ENDBRANCH   8  33
BRANCH  31  38
ATOM     38  C   UNK d   0     -24.921 -20.790  19.439  0.00  0.00     0.151 C 
BRANCH  38  39
ATOM     39  C   UNK d   0     -23.861 -20.447  18.515  0.00  0.00     0.143 C 
ATOM     40  O   UNK d   0     -22.684 -20.810  18.687  0.00  0.00    -0.650 OA
BRANCH  39  41
ATOM     41  O   UNK d   0     -24.156 -19.682  17.387  0.00  0.00    -0.776 OA
ATOM     42  H   UNK d   0     -23.416 -19.593  16.683  0.00  0.00     0.167 HD
ENDBRANCH  39  41
ENDBRANCH  38  39
ENDBRANCH  31  38
BRANCH  27  43
ATOM     43  C   UNK d   0     -24.553 -23.851  19.363  0.00  0.00     0.052 C 
BRANCH  43  44
ATOM     44  C   UNK d   0     -23.350 -24.578  18.856  0.00  0.00     0.115 C 
BRANCH  44  45
ATOM     45  C   UNK d   0     -22.902 -23.857  17.635  0.00  0.00     0.139 C 
ATOM     46  O   UNK d   0     -23.742 -23.663  16.721  0.00  0.00    -0.650 OA
BRANCH  45  47
ATOM     47  O   UNK d   0     -21.615 -23.394  17.471  0.00  0.00    -0.776 OA
ATOM     48  H   UNK d   0     -21.401 -22.459  17.086  0.00  0.00     0.167 HD
ENDBRANCH  45  47
ENDBRANCH  44  45
ENDBRANCH  43  44
ENDBRANCH  27  43
BRANCH  24  49
ATOM     49  C   UNK d   0     -22.432 -27.841  22.562  0.00  0.00     0.052 C 
BRANCH  49  50
ATOM     50  C   UNK d   0     -23.626 -28.249  23.386  0.00  0.00     0.115 C 
BRANCH  50  51
ATOM     51  C   UNK d   0     -23.371 -29.055  24.572  0.00  0.00     0.139 C 
ATOM     52  O   UNK d   0     -24.106 -29.016  25.587  0.00  0.00    -0.650 OA
BRANCH  51  53
ATOM     53  O   UNK d   0     -22.276 -29.905  24.602  0.00  0.00    -0.776 OA
ATOM     54  H   UNK d   0     -21.595 -29.828  23.867  0.00  0.00     0.167 HD
ENDBRANCH  51  53
ENDBRANCH  50  51
ENDBRANCH  49  50
ENDBRANCH  24  49
BRANCH  21  55
ATOM     55  C   UNK d   0     -19.876 -27.489  24.262  0.00  0.00     0.151 C 
BRANCH  55  56
ATOM     56  C   UNK d   0     -18.662 -27.604  23.440  0.00  0.00     0.143 C 
ATOM     57  O   UNK d   0     -18.674 -28.057  22.278  0.00  0.00    -0.650 OA
BRANCH  56  58
ATOM     58  O   UNK d   0     -17.457 -27.184  24.000  0.00  0.00    -0.776 OA
ATOM     59  H   UNK d   0     -16.919 -26.511  23.423  0.00  0.00     0.167 HD
ENDBRANCH  56  58
ENDBRANCH  55  56
ENDBRANCH  21  55
BRANCH  18  60
ATOM     60  C   UNK d   0     -18.871 -23.282  27.440  0.00  0.00     0.151 C 
BRANCH  60  61
ATOM     61  C   UNK d   0     -19.940 -23.225  28.448  0.00  0.00     0.143 C 
ATOM     62  O   UNK d   0     -21.114 -23.568  28.305  0.00  0.00    -0.650 OA
BRANCH  61  63
ATOM     63  O   UNK d   0     -19.551 -22.718  29.711  0.00  0.00    -0.776 OA
ATOM     64  H   UNK d   0     -19.048 -21.852  29.790  0.00  0.00     0.167 HD
ENDBRANCH  61  63
ENDBRANCH  60  61
ENDBRANCH  18  60
BRANCH  14  65
ATOM     65  C   UNK d   0     -19.109 -20.257  27.473  0.00  0.00     0.052 C 
BRANCH  65  66
ATOM     66  C   UNK d   0     -17.649 -20.312  27.751  0.00  0.00     0.115 C 
BRANCH  66  67
ATOM     67  C   UNK d   0     -17.146 -19.840  29.011  0.00  0.00     0.139 C 
ATOM     68  O   UNK d   0     -17.462 -20.486  30.078  0.00  0.00    -0.650 OA
BRANCH  67  69
ATOM     69  O   UNK d   0     -16.330 -18.734  29.244  0.00  0.00    -0.776 OA
ATOM     70  H   UNK d   0     -15.417 -18.934  29.676  0.00  0.00     0.167 HD
ENDBRANCH  67  69
ENDBRANCH  66  67
ENDBRANCH  65  66
ENDBRANCH  14  65
ENDBRANCH   6   7
ENDBRANCH   5   6
ENDBRANCH   2   5
TORSDOF 28
ENDMDL
MODEL 2
REMARK VINA RESULT:      -9.5      1.905      7.397
REMARK  28 active torsions:
REMARK  status: ('A' for Active; 'I' for Inactive)
REMARK    1  A    between atoms: C_2  and  O_3 
REMARK    2  A    between atoms: C_2  and  C_4 
REMARK    3  A    between atoms: C_4  and  C_5 
REMARK    4  A    between atoms: C_5  and  C_6 
REMARK    5  A    between atoms: C_7  and  C_8 
REMARK    6  A    between atoms: C_8  and  C_9 
REMARK    7  A    between atoms: C_9  and  O_11 
REMARK    8  A    between atoms: C_28  and  C_29 
REMARK    9  A    between atoms: C_29  and  C_30 
REMARK   10  A    between atoms: C_30  and  O_32 
REMARK   11  A    between atoms: C_33  and  C_34 
REMARK   12  A    between atoms: C_34  and  C_35 
REMARK   13  A    between atoms: C_35  and  C_36 
REMARK   14  A    between atoms: C_36  and  O_38 
REMARK   15  A    between atoms: C_39  and  C_40 
REMARK   16  A    between atoms: C_40  and  C_41 
REMARK   17  A    between atoms: C_41  and  C_42 
REMARK   18  A    between atoms: C_42  and  O_44 
REMARK   19  A    between atoms: C_45  and  C_46 
REMARK   20  A    between atoms: C_46  and  C_47 
REMARK   21  A    between atoms: C_47  and  O_49 
REMARK   22  A    between atoms: C_50  and  C_51 
REMARK   23  A    between atoms: C_51  and  C_52 
REMARK   24  A    between atoms: C_52  and  O_54 
REMARK   25  A    between atoms: C_55  and  C_56 
REMARK   26  A    between atoms: C_56  and  C_57 
REMARK   27  A    between atoms: C_57  and  C_58 
REMARK   28  A    between atoms: C_58  and  O_60 
ROOT
ATOM      1  O   UNK d   0     -18.121 -16.246  28.489  0.00  0.00    -0.650 OA
ATOM      2  C   UNK d   0     -18.391 -16.399  27.277  0.00  0.00     0.139 C 
ENDROOT
BRANCH   2   3
ATOM      3  O   UNK d   0     -17.510 -15.940  26.328  0.00  0.00    -0.776 OA
ATOM      4  H   UNK d   0     -16.733 -16.520  26.006  0.00  0.00     0.167 HD
ENDBRANCH   2   3
BRANCH   2   5
ATOM      5  C   UNK d   0     -19.658 -17.071  26.872  0.00  0.00     0.115 C 
BRANCH   5   6
ATOM      6  C   UNK d   0     -19.990 -16.733  25.444  0.00  0.00     0.052 C 
BRANCH   6   7
ATOM      7  C   UNK d   0     -20.878 -17.766  24.793  0.00  0.00    -0.020 A 
ATOM      8  C   UNK d   0     -21.955 -17.558  24.081  0.00  0.00    -0.011 A 
ATOM      9  C   UNK d   0     -22.477 -18.852  23.674  0.00  0.00     0.067 A 
ATOM     10  C   UNK d   0     -23.557 -19.313  22.905  0.00  0.00     0.062 C 
ATOM     11  N   UNK d   0     -21.658 -19.794  24.188  0.00  0.00    -0.248 NA
ATOM     12  C   UNK d   0     -23.742 -20.599  22.388  0.00  0.00     0.041 A 
ATOM     13  N   UNK d   0     -23.546 -21.813  22.938  0.00  0.00    -0.355 N 
ATOM     14  C   UNK d   0     -24.151 -20.743  21.049  0.00  0.00    -0.022 A 
ATOM     15  C   UNK d   0     -23.812 -22.722  21.982  0.00  0.00     0.042 A 
ATOM     16  H   UNK d   0     -23.244 -22.022  23.988  0.00  0.00     0.166 HD
ATOM     17  C   UNK d   0     -23.767 -24.130  22.022  0.00  0.00     0.062 C 
ATOM     18  C   UNK d   0     -24.194 -22.089  20.783  0.00  0.00    -0.013 A 
ATOM     19  C   UNK d   0     -22.803 -24.947  22.555  0.00  0.00     0.067 A 
ATOM     20  N   UNK d   0     -21.871 -24.366  23.315  0.00  0.00    -0.248 NA
ATOM     21  C   UNK d   0     -22.491 -26.365  22.505  0.00  0.00    -0.011 A 
ATOM     22  C   UNK d   0     -20.971 -25.302  23.764  0.00  0.00     0.066 A 
ATOM     23  C   UNK d   0     -19.966 -24.839  24.599  0.00  0.00     0.062 C 
ATOM     24  C   UNK d   0     -21.416 -26.566  23.211  0.00  0.00    -0.020 A 
ATOM     25  C   UNK d   0     -19.805 -23.545  25.118  0.00  0.00     0.041 A 
ATOM     26  N   UNK d   0     -19.986 -22.339  24.566  0.00  0.00    -0.355 N 
ATOM     27  C   UNK d   0     -19.399 -23.401  26.462  0.00  0.00    -0.022 A 
ATOM     28  C   UNK d   0     -19.712 -21.430  25.515  0.00  0.00     0.042 A 
ATOM     29  H   UNK d   0     -20.279 -22.129  23.508  0.00  0.00     0.166 HD
ATOM     30  C   UNK d   0     -19.744 -20.027  25.487  0.00  0.00     0.062 C 
ATOM     31  C   UNK d   0     -19.338 -22.067  26.722  0.00  0.00    -0.013 A 
ATOM     32  C   UNK d   0     -20.676 -19.205  24.872  0.00  0.00     0.066 A 
BRANCH   8  33
ATOM     33  C   UNK d   0     -22.555 -16.254  23.743  0.00  0.00     0.151 C 
BRANCH  33  34
ATOM     34  C   UNK d   0     -23.485 -15.768  24.778  0.00  0.00     0.143 C 
ATOM     35  O   UNK d   0     -24.651 -16.184  24.831  0.00  0.00    -0.650 OA
BRANCH  34  36
ATOM     36  O   UNK d   0     -23.050 -14.840  25.695  0.00  0.00    -0.776 OA
ATOM     37  H   UNK d   0     -23.652 -14.533  26.471  0.00  0.00     0.167 HD
ENDBRANCH  34  36
ENDBRANCH  33  34
ENDBRANCH   8  33
BRANCH  31  38
ATOM     38  C   UNK d   0     -18.961 -21.432  28.040  0.00  0.00     0.151 C 
BRANCH  38  39
ATOM     39  C   UNK d   0     -17.579 -21.003  28.082  0.00  0.00     0.143 C 
ATOM     40  O   UNK d   0     -17.229 -19.938  28.620  0.00  0.00    -0.650 OA
BRANCH  39  41
ATOM     41  O   UNK d   0     -16.595 -21.803  27.503  0.00  0.00    -0.776 OA
ATOM     42  H   UNK d   0     -15.963 -21.348  26.837  0.00  0.00     0.167 HD
ENDBRANCH  39  41
ENDBRANCH  38  39
ENDBRANCH  31  38
BRANCH  27  43
ATOM     43  C   UNK d   0     -19.073 -24.463  27.483  0.00  0.00     0.052 C 
BRANCH  43  44
ATOM     44  C   UNK d   0     -17.606 -24.703  27.637  0.00  0.00     0.115 C 
BRANCH  44  45
ATOM     45  C   UNK d   0     -17.233 -25.717  26.616  0.00  0.00     0.139 C 
ATOM     46  O   UNK d   0     -17.540 -26.916  26.833  0.00  0.00    -0.650 OA
BRANCH  45  47
ATOM     47  O   UNK d   0     -16.574 -25.395  25.449  0.00  0.00    -0.776 OA
ATOM     48  H   UNK d   0     -16.282 -26.104  24.757  0.00  0.00     0.167 HD
ENDBRANCH  45  47
ENDBRANCH  44  45
ENDBRANCH  43  44
ENDBRANCH  27  43
BRANCH  24  49
ATOM     49  C   UNK d   0     -20.771 -27.866  23.460  0.00  0.00     0.052 C 
BRANCH  49  50
ATOM     50  C   UNK d   0     -19.519 -27.998  22.631  0.00  0.00     0.115 C 
BRANCH  50  51
ATOM     51  C   UNK d   0     -18.246 -27.969  23.339  0.00  0.00     0.139 C 
ATOM     52  O   UNK d   0     -17.914 -28.848  24.169  0.00  0.00    -0.650 OA
BRANCH  51  53
ATOM     53  O   UNK d   0     -17.353 -26.935  23.104  0.00  0.00    -0.776 OA
ATOM     54  H   UNK d   0     -17.555 -26.294  22.357  0.00  0.00     0.167 HD
ENDBRANCH  51  53
ENDBRANCH  50  51
ENDBRANCH  49  50
ENDBRANCH  24  49
BRANCH  21  55
ATOM     55  C   UNK d   0     -23.303 -27.373  21.760  0.00  0.00     0.151 C 
BRANCH  55  56
ATOM     56  C   UNK d   0     -22.928 -27.442  20.339  0.00  0.00     0.143 C 
ATOM     57  O   UNK d   0     -23.359 -26.639  19.488  0.00  0.00    -0.650 OA
BRANCH  56  58
ATOM     58  O   UNK d   0     -22.053 -28.454  19.947  0.00  0.00    -0.776 OA
ATOM     59  H   UNK d   0     -22.361 -29.413  20.187  0.00  0.00     0.167 HD
ENDBRANCH  56  58
ENDBRANCH  55  56
ENDBRANCH  21  55
BRANCH  18  60
ATOM     60  C   UNK d   0     -24.578 -22.696  19.456  0.00  0.00     0.151 C 
BRANCH  60  61
ATOM     61  C   UNK d   0     -23.314 -23.050  18.793  0.00  0.00     0.143 C 
ATOM     62  O   UNK d   0     -22.221 -22.502  18.938  0.00  0.00    -0.650 OA
BRANCH  61  63
ATOM     63  O   UNK d   0     -23.389 -24.143  17.897  0.00  0.00    -0.776 OA
ATOM     64  H   UNK d   0     -22.582 -24.446  17.380  0.00  0.00     0.167 HD
ENDBRANCH  61  63
ENDBRANCH  60  61
ENDBRANCH  18  60
BRANCH  14  65
ATOM     65  C   UNK d   0     -24.593 -19.719  20.044  0.00  0.00     0.052 C 
BRANCH  65  66
ATOM     66  C   UNK d   0     -25.846 -19.020  20.438  0.00  0.00     0.115 C 
BRANCH  66  67
ATOM     67  C   UNK d   0     -25.929 -17.591  20.328  0.00  0.00     0.139 C 
ATOM     68  O   UNK d   0     -26.879 -17.084  19.624  0.00  0.00    -0.650 OA
BRANCH  67  69
ATOM     69  O   UNK d   0     -25.086 -16.640  20.902  0.00  0.00    -0.776 OA
ATOM     70  H   UNK d   0     -24.281 -17.013  21.425  0.00  0.00     0.167 HD
ENDBRANCH  67  69
ENDBRANCH  66  67
ENDBRANCH  65  66
ENDBRANCH  14  65
ENDBRANCH   6   7
ENDBRANCH   5   6
ENDBRANCH   2   5
TORSDOF 28
ENDMDL
MODEL 3
REMARK VINA RESULT:      -9.5      1.718      2.185
REMARK  28 active torsions:
REMARK  status: ('A' for Active; 'I' for Inactive)
REMARK    1  A    between atoms: C_2  and  O_3 
REMARK    2  A    between atoms: C_2  and  C_4 
REMARK    3  A    between atoms: C_4  and  C_5 
REMARK    4  A    between atoms: C_5  and  C_6 
REMARK    5  A    between atoms: C_7  and  C_8 
REMARK    6  A    between atoms: C_8  and  C_9 
REMARK    7  A    between atoms: C_9  and  O_11 
REMARK    8  A    between atoms: C_28  and  C_29 
REMARK    9  A    between atoms: C_29  and  C_30 
REMARK   10  A    between atoms: C_30  and  O_32 
REMARK   11  A    between atoms: C_33  and  C_34 
REMARK   12  A    between atoms: C_34  and  C_35 
REMARK   13  A    between atoms: C_35  and  C_36 
REMARK   14  A    between atoms: C_36  and  O_38 
REMARK   15  A    between atoms: C_39  and  C_40 
REMARK   16  A    between atoms: C_40  and  C_41 
REMARK   17  A    between atoms: C_41  and  C_42 
REMARK   18  A    between atoms: C_42  and  O_44 
REMARK   19  A    between atoms: C_45  and  C_46 
REMARK   20  A    between atoms: C_46  and  C_47 
REMARK   21  A    between atoms: C_47  and  O_49 
REMARK   22  A    between atoms: C_50  and  C_51 
REMARK   23  A    between atoms: C_51  and  C_52 
REMARK   24  A    between atoms: C_52  and  O_54 
REMARK   25  A    between atoms: C_55  and  C_56 
REMARK   26  A    between atoms: C_56  and  C_57 
REMARK   27  A    between atoms: C_57  and  C_58 
REMARK   28  A    between atoms: C_58  and  O_60 
ROOT
ATOM      1  O   UNK d   0     -24.507 -14.924  26.264  0.00  0.00    -0.650 OA
ATOM      2  C   UNK d   0     -24.026 -15.143  25.130  0.00  0.00     0.139 C 
ENDROOT
BRANCH   2   3
ATOM      3  O   UNK d   0     -23.215 -14.198  24.549  0.00  0.00    -0.776 OA
ATOM      4  H   UNK d   0     -23.030 -14.208  23.544  0.00  0.00     0.167 HD
ENDBRANCH   2   3
BRANCH   2   5
ATOM      5  C   UNK d   0     -24.334 -16.416  24.419  0.00  0.00     0.115 C 
BRANCH   5   6
ATOM      6  C   UNK d   0     -23.274 -16.704  23.391  0.00  0.00     0.052 C 
BRANCH   6   7
ATOM      7  C   UNK d   0     -22.446 -17.919  23.735  0.00  0.00    -0.020 A 
ATOM      8  C   UNK d   0     -21.408 -17.979  24.530  0.00  0.00    -0.011 A 
ATOM      9  C   UNK d   0     -20.937 -19.354  24.544  0.00  0.00     0.067 A 
ATOM     10  C   UNK d   0     -19.913 -20.067  25.187  0.00  0.00     0.062 C 
ATOM     11  N   UNK d   0     -21.744 -20.062  23.726  0.00  0.00    -0.248 NA
ATOM     12  C   UNK d   0     -19.785 -21.457  25.291  0.00  0.00     0.041 A 
ATOM     13  N   UNK d   0     -19.973 -22.435  24.385  0.00  0.00    -0.355 N 
ATOM     14  C   UNK d   0     -19.457 -22.018  26.539  0.00  0.00    -0.022 A 
ATOM     15  C   UNK d   0     -19.781 -23.602  25.028  0.00  0.00     0.042 A 
ATOM     16  H   UNK d   0     -20.218 -22.302  23.308  0.00  0.00     0.166 HD
ATOM     17  C   UNK d   0     -19.852 -24.928  24.555  0.00  0.00     0.062 C 
ATOM     18  C   UNK d   0     -19.456 -23.381  26.380  0.00  0.00    -0.013 A 
ATOM     19  C   UNK d   0     -20.800 -25.506  23.749  0.00  0.00     0.067 A 
ATOM     20  N   UNK d   0     -21.674 -24.687  23.160  0.00  0.00    -0.248 NA
ATOM     21  C   UNK d   0     -21.143 -26.860  23.346  0.00  0.00    -0.011 A 
ATOM     22  C   UNK d   0     -22.565 -25.407  22.402  0.00  0.00     0.066 A 
ATOM     23  C   UNK d   0     -23.511 -24.673  21.701  0.00  0.00     0.062 C 
ATOM     24  C   UNK d   0     -22.179 -26.795  22.561  0.00  0.00    -0.020 A 
ATOM     25  C   UNK d   0     -23.615 -23.278  21.598  0.00  0.00     0.041 A 
ATOM     26  N   UNK d   0     -23.442 -22.306  22.502  0.00  0.00    -0.355 N 
ATOM     27  C   UNK d   0     -23.939 -22.715  20.345  0.00  0.00    -0.022 A 
ATOM     28  C   UNK d   0     -23.642 -21.141  21.866  0.00  0.00     0.042 A 
ATOM     29  H   UNK d   0     -23.207 -22.441  23.587  0.00  0.00     0.166 HD
ATOM     30  C   UNK d   0     -23.583 -19.816  22.326  0.00  0.00     0.062 C 
ATOM     31  C   UNK d   0     -23.958 -21.364  20.505  0.00  0.00    -0.013 A 
ATOM     32  C   UNK d   0     -22.673 -19.257  23.208  0.00  0.00     0.066 A 
BRANCH   8  33
ATOM     33  C   UNK d   0     -20.803 -16.864  25.281  0.00  0.00     0.151 C 
BRANCH  33  34
ATOM     34  C   UNK d   0     -19.385 -16.648  24.940  0.00  0.00     0.143 C 
ATOM     35  O   UNK d   0     -18.520 -16.590  25.825  0.00  0.00    -0.650 OA
BRANCH  34  36
ATOM     36  O   UNK d   0     -19.022 -16.510  23.620  0.00  0.00    -0.776 OA
ATOM     37  H   UNK d   0     -19.699 -16.204  22.909  0.00  0.00     0.167 HD
ENDBRANCH  34  36
ENDBRANCH  33  34
ENDBRANCH   8  33
BRANCH  31  38
ATOM     38  C   UNK d   0     -24.245 -20.342  19.429  0.00  0.00     0.151 C 
BRANCH  38  39
ATOM     39  C   UNK d   0     -25.660 -20.097  19.251  0.00  0.00     0.143 C 
ATOM     40  O   UNK d   0     -26.285 -19.274  19.943  0.00  0.00    -0.650 OA
BRANCH  39  41
ATOM     41  O   UNK d   0     -26.361 -20.800  18.272  0.00  0.00    -0.776 OA
ATOM     42  H   UNK d   0     -26.814 -20.244  17.540  0.00  0.00     0.167 HD
ENDBRANCH  39  41
ENDBRANCH  38  39
ENDBRANCH  31  38
BRANCH  27  43
ATOM     43  C   UNK d   0     -24.227 -23.401  19.032  0.00  0.00     0.052 C 
BRANCH  43  44
ATOM     44  C   UNK d   0     -23.037 -23.477  18.132  0.00  0.00     0.115 C 
BRANCH  44  45
ATOM     45  C   UNK d   0     -23.518 -23.150  16.764  0.00  0.00     0.139 C 
ATOM     46  O   UNK d   0     -24.611 -22.542  16.651  0.00  0.00    -0.650 OA
BRANCH  45  47
ATOM     47  O   UNK d   0     -22.816 -23.482  15.626  0.00  0.00    -0.776 OA
ATOM     48  H   UNK d   0     -23.228 -24.027  14.852  0.00  0.00     0.167 HD
ENDBRANCH  45  47
ENDBRANCH  44  45
ENDBRANCH  43  44
ENDBRANCH  27  43
BRANCH  24  49
ATOM     49  C   UNK d   0     -22.835 -27.932  21.893  0.00  0.00     0.052 C 
BRANCH  49  50
ATOM     50  C   UNK d   0     -22.297 -28.100  20.495  0.00  0.00     0.115 C 
BRANCH  50  51
ATOM     51  C   UNK d   0     -23.242 -27.953  19.396  0.00  0.00     0.139 C 
ATOM     52  O   UNK d   0     -23.907 -26.907  19.212  0.00  0.00    -0.650 OA
BRANCH  51  53
ATOM     53  O   UNK d   0     -23.430 -29.001  18.508  0.00  0.00    -0.776 OA
ATOM     54  H   UNK d   0     -23.240 -29.935  18.827  0.00  0.00     0.167 HD
ENDBRANCH  51  53
ENDBRANCH  50  51
ENDBRANCH  49  50
ENDBRANCH  24  49
BRANCH  21  55
ATOM     55  C   UNK d   0     -20.396 -28.076  23.784  0.00  0.00     0.151 C 
BRANCH  55  56
ATOM     56  C   UNK d   0     -19.020 -28.095  23.265  0.00  0.00     0.143 C 
ATOM     57  O   UNK d   0     -18.756 -28.226  22.053  0.00  0.00    -0.650 OA
BRANCH  56  58
ATOM     58  O   UNK d   0     -17.978 -27.958  24.182  0.00  0.00    -0.776 OA
ATOM     59  H   UNK d   0     -17.833 -26.996  24.537  0.00  0.00     0.167 HD
ENDBRANCH  56  58
ENDBRANCH  55  56
ENDBRANCH  21  55
BRANCH  18  60
ATOM     60  C   UNK d   0     -19.163 -24.378  27.474  0.00  0.00     0.151 C 
BRANCH  60  61
ATOM     61  C   UNK d   0     -17.807 -24.882  27.207  0.00  0.00     0.143 C 
ATOM     62  O   UNK d   0     -16.754 -24.246  27.267  0.00  0.00    -0.650 OA
BRANCH  61  63
ATOM     63  O   UNK d   0     -17.732 -26.249  26.846  0.00  0.00    -0.776 OA
ATOM     64  H   UNK d   0     -18.564 -26.791  26.692  0.00  0.00     0.167 HD
ENDBRANCH  61  63
ENDBRANCH  60  61
ENDBRANCH  18  60
BRANCH  14  65
ATOM     65  C   UNK d   0     -19.053 -21.367  27.831  0.00  0.00     0.052 C 
BRANCH  65  66
ATOM     66  C   UNK d   0     -17.625 -20.950  27.851  0.00  0.00     0.115 C 
BRANCH  66  67
ATOM     67  C   UNK d   0     -17.100 -20.262  28.996  0.00  0.00     0.139 C 
ATOM     68  O   UNK d   0     -17.518 -20.605  30.163  0.00  0.00    -0.650 OA
BRANCH  67  69
ATOM     69  O   UNK d   0     -16.162 -19.230  29.016  0.00  0.00    -0.776 OA
ATOM     70  H   UNK d   0     -16.493 -18.330  29.392  0.00  0.00     0.167 HD
ENDBRANCH  67  69
ENDBRANCH  66  67
ENDBRANCH  65  66
ENDBRANCH  14  65
ENDBRANCH   6   7
ENDBRANCH   5   6
ENDBRANCH   2   5
TORSDOF 28
ENDMDL
MODEL 4
REMARK VINA RESULT:      -9.4      1.635      2.230
REMARK  28 active torsions:
REMARK  status: ('A' for Active; 'I' for Inactive)
REMARK    1  A    between atoms: C_2  and  O_3 
REMARK    2  A    between atoms: C_2  and  C_4 
REMARK    3  A    between atoms: C_4  and  C_5 
REMARK    4  A    between atoms: C_5  and  C_6 
REMARK    5  A    between atoms: C_7  and  C_8 
REMARK    6  A    between atoms: C_8  and  C_9 
REMARK    7  A    between atoms: C_9  and  O_11 
REMARK    8  A    between atoms: C_28  and  C_29 
REMARK    9  A    between atoms: C_29  and  C_30 
REMARK   10  A    between atoms: C_30  and  O_32 
REMARK   11  A    between atoms: C_33  and  C_34 
REMARK   12  A    between atoms: C_34  and  C_35 
REMARK   13  A    between atoms: C_35  and  C_36 
REMARK   14  A    between atoms: C_36  and  O_38 
REMARK   15  A    between atoms: C_39  and  C_40 
REMARK   16  A    between atoms: C_40  and  C_41 
REMARK   17  A    between atoms: C_41  and  C_42 
REMARK   18  A    between atoms: C_42  and  O_44 
REMARK   19  A    between atoms: C_45  and  C_46 
REMARK   20  A    between atoms: C_46  and  C_47 
REMARK   21  A    between atoms: C_47  and  O_49 
REMARK   22  A    between atoms: C_50  and  C_51 
REMARK   23  A    between atoms: C_51  and  C_52 
REMARK   24  A    between atoms: C_52  and  O_54 
REMARK   25  A    between atoms: C_55  and  C_56 
REMARK   26  A    between atoms: C_56  and  C_57 
REMARK   27  A    between atoms: C_57  and  C_58 
REMARK   28  A    between atoms: C_58  and  O_60 
ROOT
ATOM      1  O   UNK d   0     -25.368 -16.687  21.937  0.00  0.00    -0.650 OA
ATOM      2  C   UNK d   0     -24.685 -16.097  22.804  0.00  0.00     0.139 C 
ENDROOT
BRANCH   2   3
ATOM      3  O   UNK d   0     -25.228 -15.028  23.476  0.00  0.00    -0.776 OA
ATOM      4  H   UNK d   0     -25.867 -15.168  24.261  0.00  0.00     0.167 HD
ENDBRANCH   2   3
BRANCH   2   5
ATOM      5  C   UNK d   0     -23.298 -16.553  23.102  0.00  0.00     0.115 C 
BRANCH   5   6
ATOM      6  C   UNK d   0     -23.161 -16.873  24.566  0.00  0.00     0.052 C 
BRANCH   6   7
ATOM      7  C   UNK d   0     -22.257 -18.055  24.821  0.00  0.00    -0.020 A 
ATOM      8  C   UNK d   0     -21.211 -18.106  25.605  0.00  0.00    -0.011 A 
ATOM      9  C   UNK d   0     -20.657 -19.447  25.521  0.00  0.00     0.067 A 
ATOM     10  C   UNK d   0     -19.585 -20.138  26.108  0.00  0.00     0.062 C 
ATOM     11  N   UNK d   0     -21.425 -20.145  24.658  0.00  0.00    -0.248 NA
ATOM     12  C   UNK d   0     -19.371 -21.521  26.114  0.00  0.00     0.041 A 
ATOM     13  N   UNK d   0     -19.506 -22.443  25.143  0.00  0.00    -0.355 N 
ATOM     14  C   UNK d   0     -18.999 -22.146  27.318  0.00  0.00    -0.022 A 
ATOM     15  C   UNK d   0     -19.237 -23.639  25.701  0.00  0.00     0.042 A 
ATOM     16  H   UNK d   0     -19.767 -22.251  24.079  0.00  0.00     0.166 HD
ATOM     17  C   UNK d   0     -19.231 -24.930  25.137  0.00  0.00     0.062 C 
ATOM     18  C   UNK d   0     -18.916 -23.492  27.065  0.00  0.00    -0.013 A 
ATOM     19  C   UNK d   0     -20.148 -25.508  24.297  0.00  0.00     0.067 A 
ATOM     20  N   UNK d   0     -21.076 -24.706  23.770  0.00  0.00    -0.248 NA
ATOM     21  C   UNK d   0     -20.410 -26.849  23.801  0.00  0.00    -0.011 A 
ATOM     22  C   UNK d   0     -21.927 -25.425  22.967  0.00  0.00     0.066 A 
ATOM     23  C   UNK d   0     -22.922 -24.704  22.323  0.00  0.00     0.062 C 
ATOM     24  C   UNK d   0     -21.455 -26.794  23.027  0.00  0.00    -0.020 A 
ATOM     25  C   UNK d   0     -23.113 -23.314  22.319  0.00  0.00     0.041 A 
ATOM     26  N   UNK d   0     -22.993 -22.399  23.288  0.00  0.00    -0.355 N 
ATOM     27  C   UNK d   0     -23.482 -22.687  21.109  0.00  0.00    -0.022 A 
ATOM     28  C   UNK d   0     -23.269 -21.207  22.736  0.00  0.00     0.042 A 
ATOM     29  H   UNK d   0     -22.740 -22.594  24.359  0.00  0.00     0.166 HD
ATOM     30  C   UNK d   0     -23.288 -19.916  23.287  0.00  0.00     0.062 C 
ATOM     31  C   UNK d   0     -23.582 -21.353  21.363  0.00  0.00    -0.013 A 
ATOM     32  C   UNK d   0     -22.406 -19.364  24.203  0.00  0.00     0.066 A 
BRANCH   8  33
ATOM     33  C   UNK d   0     -20.669 -17.010  26.430  0.00  0.00     0.151 C 
BRANCH  33  34
ATOM     34  C   UNK d   0     -19.197 -16.949  26.402  0.00  0.00     0.143 C 
ATOM     35  O   UNK d   0     -18.591 -16.680  25.355  0.00  0.00    -0.650 OA
BRANCH  34  36
ATOM     36  O   UNK d   0     -18.489 -17.196  27.555  0.00  0.00    -0.776 OA
ATOM     37  H   UNK d   0     -18.320 -18.157  27.883  0.00  0.00     0.167 HD
ENDBRANCH  34  36
ENDBRANCH  33  34
ENDBRANCH   8  33
BRANCH  31  38
ATOM     38  C   UNK d   0     -23.940 -20.279  20.363  0.00  0.00     0.151 C 
BRANCH  38  39
ATOM     39  C   UNK d   0     -25.363 -20.199  20.111  0.00  0.00     0.143 C 
ATOM     40  O   UNK d   0     -26.175 -19.843  20.984  0.00  0.00    -0.650 OA
BRANCH  39  41
ATOM     41  O   UNK d   0     -25.856 -20.528  18.849  0.00  0.00    -0.776 OA
ATOM     42  H   UNK d   0     -25.626 -19.889  18.082  0.00  0.00     0.167 HD
ENDBRANCH  39  41
ENDBRANCH  38  39
ENDBRANCH  31  38
BRANCH  27  43
ATOM     43  C   UNK d   0     -23.738 -23.296  19.753  0.00  0.00     0.052 C 
BRANCH  43  44
ATOM     44  C   UNK d   0     -22.544 -23.265  18.856  0.00  0.00     0.115 C 
BRANCH  44  45
ATOM     45  C   UNK d   0     -22.886 -22.364  17.724  0.00  0.00     0.139 C 
ATOM     46  O   UNK d   0     -24.080 -22.329  17.336  0.00  0.00    -0.650 OA
BRANCH  45  47
ATOM     47  O   UNK d   0     -21.954 -21.568  17.095  0.00  0.00    -0.776 OA
ATOM     48  H   UNK d   0     -21.534 -20.736  17.541  0.00  0.00     0.167 HD
ENDBRANCH  45  47
ENDBRANCH  44  45
ENDBRANCH  43  44
ENDBRANCH  27  43
BRANCH  24  49
ATOM     49  C   UNK d   0     -22.046 -27.920  22.283  0.00  0.00     0.052 C 
BRANCH  49  50
ATOM     50  C   UNK d   0     -23.409 -28.254  22.833  0.00  0.00     0.115 C 
BRANCH  50  51
ATOM     51  C   UNK d   0     -23.462 -28.860  24.156  0.00  0.00     0.139 C 
ATOM     52  O   UNK d   0     -22.562 -29.618  24.590  0.00  0.00    -0.650 OA
BRANCH  51  53
ATOM     53  O   UNK d   0     -24.543 -28.604  24.985  0.00  0.00    -0.776 OA
ATOM     54  H   UNK d   0     -24.884 -27.660  25.044  0.00  0.00     0.167 HD
ENDBRANCH  51  53
ENDBRANCH  50  51
ENDBRANCH  49  50
ENDBRANCH  24  49
BRANCH  21  55
ATOM     55  C   UNK d   0     -19.587 -28.044  24.149  0.00  0.00     0.151 C 
BRANCH  55  56
ATOM     56  C   UNK d   0     -18.480 -28.247  23.201  0.00  0.00     0.143 C 
ATOM     57  O   UNK d   0     -18.513 -29.109  22.301  0.00  0.00    -0.650 OA
BRANCH  56  58
ATOM     58  O   UNK d   0     -17.357 -27.432  23.330  0.00  0.00    -0.776 OA
ATOM     59  H   UNK d   0     -16.617 -27.805  23.952  0.00  0.00     0.167 HD
ENDBRANCH  56  58
ENDBRANCH  55  56
ENDBRANCH  21  55
BRANCH  18  60
ATOM     60  C   UNK d   0     -18.552 -24.543  28.084  0.00  0.00     0.151 C 
BRANCH  60  61
ATOM     61  C   UNK d   0     -17.169 -24.940  27.779  0.00  0.00     0.143 C 
ATOM     62  O   UNK d   0     -16.181 -24.207  27.723  0.00  0.00    -0.650 OA
BRANCH  61  63
ATOM     63  O   UNK d   0     -16.980 -26.321  27.526  0.00  0.00    -0.776 OA
ATOM     64  H   UNK d   0     -16.269 -26.639  26.892  0.00  0.00     0.167 HD
ENDBRANCH  61  63
ENDBRANCH  60  61
ENDBRANCH  18  60
BRANCH  14  65
ATOM     65  C   UNK d   0     -18.624 -21.563  28.651  0.00  0.00     0.052 C 
BRANCH  65  66
ATOM     66  C   UNK d   0     -19.805 -21.179  29.470  0.00  0.00     0.115 C 
BRANCH  66  67
ATOM     67  C   UNK d   0     -20.261 -22.051  30.516  0.00  0.00     0.139 C 
ATOM     68  O   UNK d   0     -19.829 -23.262  30.536  0.00  0.00    -0.650 OA
BRANCH  67  69
ATOM     69  O   UNK d   0     -21.143 -21.752  31.553  0.00  0.00    -0.776 OA
ATOM     70  H   UNK d   0     -22.140 -21.926  31.358  0.00  0.00     0.167 HD
ENDBRANCH  67  69
ENDBRANCH  66  67
ENDBRANCH  65  66
ENDBRANCH  14  65
ENDBRANCH   6   7
ENDBRANCH   5   6
ENDBRANCH   2   5
TORSDOF 28
ENDMDL
MODEL 5
REMARK VINA RESULT:      -9.3      2.037      8.383
REMARK  28 active torsions:
REMARK  status: ('A' for Active; 'I' for Inactive)
REMARK    1  A    between atoms: C_2  and  O_3 
REMARK    2  A    between atoms: C_2  and  C_4 
REMARK    3  A    between atoms: C_4  and  C_5 
REMARK    4  A    between atoms: C_5  and  C_6 
REMARK    5  A    between atoms: C_7  and  C_8 
REMARK    6  A    between atoms: C_8  and  C_9 
REMARK    7  A    between atoms: C_9  and  O_11 
REMARK    8  A    between atoms: C_28  and  C_29 
REMARK    9  A    between atoms: C_29  and  C_30 
REMARK   10  A    between atoms: C_30  and  O_32 
REMARK   11  A    between atoms: C_33  and  C_34 
REMARK   12  A    between atoms: C_34  and  C_35 
REMARK   13  A    between atoms: C_35  and  C_36 
REMARK   14  A    between atoms: C_36  and  O_38 
REMARK   15  A    between atoms: C_39  and  C_40 
REMARK   16  A    between atoms: C_40  and  C_41 
REMARK   17  A    between atoms: C_41  and  C_42 
REMARK   18  A    between atoms: C_42  and  O_44 
REMARK   19  A    between atoms: C_45  and  C_46 
REMARK   20  A    between atoms: C_46  and  C_47 
REMARK   21  A    between atoms: C_47  and  O_49 
REMARK   22  A    between atoms: C_50  and  C_51 
REMARK   23  A    between atoms: C_51  and  C_52 
REMARK   24  A    between atoms: C_52  and  O_54 
REMARK   25  A    between atoms: C_55  and  C_56 
REMARK   26  A    between atoms: C_56  and  C_57 
REMARK   27  A    between atoms: C_57  and  C_58 
REMARK   28  A    between atoms: C_58  and  O_60 
ROOT
ATOM      1  O   UNK d   0     -21.683 -22.829  17.529  0.00  0.00    -0.650 OA
ATOM      2  C   UNK d   0     -22.790 -22.248  17.558  0.00  0.00     0.139 C 
ENDROOT
BRANCH   2   3
ATOM      3  O   UNK d   0     -22.829 -20.879  17.678  0.00  0.00    -0.776 OA
ATOM      4  H   UNK d   0     -22.517 -20.415  18.534  0.00  0.00     0.167 HD
ENDBRANCH   2   3
BRANCH   2   5
ATOM      5  C   UNK d   0     -24.052 -23.035  17.465  0.00  0.00     0.115 C 
BRANCH   5   6
ATOM      6  C   UNK d   0     -24.822 -22.933  18.753  0.00  0.00     0.052 C 
BRANCH   6   7
ATOM      7  C   UNK d   0     -24.043 -23.449  19.939  0.00  0.00    -0.020 A 
ATOM      8  C   UNK d   0     -23.833 -24.696  20.275  0.00  0.00    -0.011 A 
ATOM      9  C   UNK d   0     -23.038 -24.702  21.492  0.00  0.00     0.067 A 
ATOM     10  C   UNK d   0     -22.474 -25.678  22.329  0.00  0.00     0.062 C 
ATOM     11  N   UNK d   0     -22.815 -23.415  21.830  0.00  0.00    -0.248 NA
ATOM     12  C   UNK d   0     -21.497 -25.489  23.312  0.00  0.00     0.041 A 
ATOM     13  N   UNK d   0     -21.352 -24.527  24.243  0.00  0.00    -0.355 N 
ATOM     14  C   UNK d   0     -20.414 -26.383  23.376  0.00  0.00    -0.022 A 
ATOM     15  C   UNK d   0     -20.199 -24.783  24.890  0.00  0.00     0.042 A 
ATOM     16  H   UNK d   0     -22.059 -23.694  24.451  0.00  0.00     0.166 HD
ATOM     17  C   UNK d   0     -19.574 -24.096  25.950  0.00  0.00     0.062 C 
ATOM     18  C   UNK d   0     -19.583 -25.940  24.374  0.00  0.00    -0.013 A 
ATOM     19  C   UNK d   0     -19.384 -22.747  26.110  0.00  0.00     0.067 A 
ATOM     20  N   UNK d   0     -20.036 -21.941  25.268  0.00  0.00    -0.248 NA
ATOM     21  C   UNK d   0     -18.604 -21.900  26.996  0.00  0.00    -0.011 A 
ATOM     22  C   UNK d   0     -19.738 -20.628  25.539  0.00  0.00     0.066 A 
ATOM     23  C   UNK d   0     -20.379 -19.677  24.759  0.00  0.00     0.062 C 
ATOM     24  C   UNK d   0     -18.812 -20.661  26.654  0.00  0.00    -0.020 A 
ATOM     25  C   UNK d   0     -21.367 -19.887  23.785  0.00  0.00     0.041 A 
ATOM     26  N   UNK d   0     -21.505 -20.834  22.850  0.00  0.00    -0.355 N 
ATOM     27  C   UNK d   0     -22.457 -18.991  23.725  0.00  0.00    -0.022 A 
ATOM     28  C   UNK d   0     -22.649 -20.575  22.197  0.00  0.00     0.042 A 
ATOM     29  H   UNK d   0     -20.788 -21.664  22.635  0.00  0.00     0.166 HD
ATOM     30  C   UNK d   0     -23.278 -21.245  21.136  0.00  0.00     0.062 C 
ATOM     31  C   UNK d   0     -23.273 -19.419  22.723  0.00  0.00    -0.013 A 
ATOM     32  C   UNK d   0     -23.392 -22.612  20.936  0.00  0.00     0.066 A 
BRANCH   8  33
ATOM     33  C   UNK d   0     -24.312 -25.897  19.564  0.00  0.00     0.151 C 
BRANCH  33  34
ATOM     34  C   UNK d   0     -23.249 -26.564  18.792  0.00  0.00     0.143 C 
ATOM     35  O   UNK d   0     -22.859 -26.098  17.711  0.00  0.00    -0.650 OA
BRANCH  34  36
ATOM     36  O   UNK d   0     -22.685 -27.721  19.278  0.00  0.00    -0.776 OA
ATOM     37  H   UNK d   0     -22.356 -27.787  20.251  0.00  0.00     0.167 HD
ENDBRANCH  34  36
ENDBRANCH  33  34
ENDBRANCH   8  33
BRANCH  31  38
ATOM     38  C   UNK d   0     -24.574 -18.780  22.298  0.00  0.00     0.151 C 
BRANCH  38  39
ATOM     39  C   UNK d   0     -25.733 -19.422  22.882  0.00  0.00     0.143 C 
ATOM     40  O   UNK d   0     -26.260 -19.017  23.933  0.00  0.00    -0.650 OA
BRANCH  39  41
ATOM     41  O   UNK d   0     -26.289 -20.536  22.254  0.00  0.00    -0.776 OA
ATOM     42  H   UNK d   0     -25.803 -20.887  21.422  0.00  0.00     0.167 HD
ENDBRANCH  39  41
ENDBRANCH  38  39
ENDBRANCH  31  38
BRANCH  27  43
ATOM     43  C   UNK d   0     -22.742 -17.770  24.564  0.00  0.00     0.052 C 
BRANCH  43  44
ATOM     44  C   UNK d   0     -22.199 -16.509  23.975  0.00  0.00     0.115 C 
BRANCH  44  45
ATOM     45  C   UNK d   0     -22.749 -15.391  24.785  0.00  0.00     0.139 C 
ATOM     46  O   UNK d   0     -23.027 -15.615  25.989  0.00  0.00    -0.650 OA
BRANCH  45  47
ATOM     47  O   UNK d   0     -22.957 -14.129  24.273  0.00  0.00    -0.776 OA
ATOM     48  H   UNK d   0     -23.608 -13.451  24.702  0.00  0.00     0.167 HD
ENDBRANCH  45  47
ENDBRANCH  44  45
ENDBRANCH  43  44
ENDBRANCH  27  43
BRANCH  24  49
ATOM     49  C   UNK d   0     -18.248 -19.471  27.314  0.00  0.00     0.052 C 
BRANCH  49  50
ATOM     50  C   UNK d   0     -18.931 -18.223  26.818  0.00  0.00     0.115 C 
BRANCH  50  51
ATOM     51  C   UNK d   0     -18.318 -16.947  27.164  0.00  0.00     0.139 C 
ATOM     52  O   UNK d   0     -17.938 -16.123  26.300  0.00  0.00    -0.650 OA
BRANCH  51  53
ATOM     53  O   UNK d   0     -18.136 -16.613  28.498  0.00  0.00    -0.776 OA
ATOM     54  H   UNK d   0     -18.728 -15.906  28.896  0.00  0.00     0.167 HD
ENDBRANCH  51  53
ENDBRANCH  50  51
ENDBRANCH  49  50
ENDBRANCH  24  49
BRANCH  21  55
ATOM     55  C   UNK d   0     -17.736 -22.416  28.095  0.00  0.00     0.151 C 
BRANCH  55  56
ATOM     56  C   UNK d   0     -16.785 -23.432  27.616  0.00  0.00     0.143 C 
ATOM     57  O   UNK d   0     -16.876 -24.638  27.919  0.00  0.00    -0.650 OA
BRANCH  56  58
ATOM     58  O   UNK d   0     -15.746 -23.009  26.789  0.00  0.00    -0.776 OA
ATOM     59  H   UNK d   0     -15.813 -22.025  26.472  0.00  0.00     0.167 HD
ENDBRANCH  56  58
ENDBRANCH  55  56
ENDBRANCH  21  55
BRANCH  18  60
ATOM     60  C   UNK d   0     -18.289 -26.601  24.780  0.00  0.00     0.151 C 
BRANCH  60  61
ATOM     61  C   UNK d   0     -17.241 -25.975  23.960  0.00  0.00     0.143 C 
ATOM     62  O   UNK d   0     -16.976 -26.216  22.782  0.00  0.00    -0.650 OA
BRANCH  61  63
ATOM     63  O   UNK d   0     -16.466 -24.991  24.621  0.00  0.00    -0.776 OA
ATOM     64  H   UNK d   0     -15.486 -25.130  24.789  0.00  0.00     0.167 HD
ENDBRANCH  61  63
ENDBRANCH  60  61
ENDBRANCH  18  60
BRANCH  14  65
ATOM     65  C   UNK d   0     -20.157 -27.667  22.639  0.00  0.00     0.052 C 
BRANCH  65  66
ATOM     66  C   UNK d   0     -21.019 -28.787  23.103  0.00  0.00     0.115 C 
BRANCH  66  67
ATOM     67  C   UNK d   0     -20.424 -29.924  23.747  0.00  0.00     0.139 C 
ATOM     68  O   UNK d   0     -19.829 -29.749  24.874  0.00  0.00    -0.650 OA
BRANCH  67  69
ATOM     69  O   UNK d   0     -20.401 -31.244  23.298  0.00  0.00    -0.776 OA
ATOM     70  H   UNK d   0     -20.550 -31.964  24.019  0.00  0.00     0.167 HD
ENDBRANCH  67  69
ENDBRANCH  66  67
ENDBRANCH  65  66
ENDBRANCH  14  65
ENDBRANCH   6   7
ENDBRANCH   5   6
ENDBRANCH   2   5
TORSDOF 28
ENDMDL
MODEL 6
REMARK VINA RESULT:      -9.2      2.476      9.765
REMARK  28 active torsions:
REMARK  status: ('A' for Active; 'I' for Inactive)
REMARK    1  A    between atoms: C_2  and  O_3 
REMARK    2  A    between atoms: C_2  and  C_4 
REMARK    3  A    between atoms: C_4  and  C_5 
REMARK    4  A    between atoms: C_5  and  C_6 
REMARK    5  A    between atoms: C_7  and  C_8 
REMARK    6  A    between atoms: C_8  and  C_9 
REMARK    7  A    between atoms: C_9  and  O_11 
REMARK    8  A    between atoms: C_28  and  C_29 
REMARK    9  A    between atoms: C_29  and  C_30 
REMARK   10  A    between atoms: C_30  and  O_32 
REMARK   11  A    between atoms: C_33  and  C_34 
REMARK   12  A    between atoms: C_34  and  C_35 
REMARK   13  A    between atoms: C_35  and  C_36 
REMARK   14  A    between atoms: C_36  and  O_38 
REMARK   15  A    between atoms: C_39  and  C_40 
REMARK   16  A    between atoms: C_40  and  C_41 
REMARK   17  A    between atoms: C_41  and  C_42 
REMARK   18  A    between atoms: C_42  and  O_44 
REMARK   19  A    between atoms: C_45  and  C_46 
REMARK   20  A    between atoms: C_46  and  C_47 
REMARK   21  A    between atoms: C_47  and  O_49 
REMARK   22  A    between atoms: C_50  and  C_51 
REMARK   23  A    between atoms: C_51  and  C_52 
REMARK   24  A    between atoms: C_52  and  O_54 
REMARK   25  A    between atoms: C_55  and  C_56 
REMARK   26  A    between atoms: C_56  and  C_57 
REMARK   27  A    between atoms: C_57  and  C_58 
REMARK   28  A    between atoms: C_58  and  O_60 
ROOT
ATOM      1  O   UNK d   0     -23.520 -29.067  25.014  0.00  0.00    -0.650 OA
ATOM      2  C   UNK d   0     -22.873 -28.742  23.994  0.00  0.00     0.139 C 
ENDROOT
BRANCH   2   3
ATOM      3  O   UNK d   0     -21.544 -29.079  23.903  0.00  0.00    -0.776 OA
ATOM      4  H   UNK d   0     -20.898 -28.528  23.335  0.00  0.00     0.167 HD
ENDBRANCH   2   3
BRANCH   2   5
ATOM      5  C   UNK d   0     -23.542 -27.994  22.891  0.00  0.00     0.115 C 
BRANCH   5   6
ATOM      6  C   UNK d   0     -22.511 -27.399  21.970  0.00  0.00     0.052 C 
BRANCH   6   7
ATOM      7  C   UNK d   0     -22.307 -25.921  22.204  0.00  0.00    -0.020 A 
ATOM      8  C   UNK d   0     -22.902 -24.928  21.595  0.00  0.00    -0.011 A 
ATOM      9  C   UNK d   0     -22.378 -23.690  22.148  0.00  0.00     0.067 A 
ATOM     10  C   UNK d   0     -22.605 -22.318  21.953  0.00  0.00     0.062 C 
ATOM     11  N   UNK d   0     -21.465 -24.024  23.083  0.00  0.00    -0.248 NA
ATOM     12  C   UNK d   0     -22.200 -21.267  22.783  0.00  0.00     0.041 A 
ATOM     13  N   UNK d   0     -21.037 -21.040  23.424  0.00  0.00    -0.355 N 
ATOM     14  C   UNK d   0     -23.124 -20.254  23.098  0.00  0.00    -0.022 A 
ATOM     15  C   UNK d   0     -21.202 -19.914  24.143  0.00  0.00     0.042 A 
ATOM     16  H   UNK d   0     -20.112 -21.653  23.353  0.00  0.00     0.166 HD
ATOM     17  C   UNK d   0     -20.306 -19.232  24.990  0.00  0.00     0.062 C 
ATOM     18  C   UNK d   0     -22.498 -19.392  23.965  0.00  0.00    -0.013 A 
ATOM     19  C   UNK d   0     -19.466 -19.742  25.947  0.00  0.00     0.067 A 
ATOM     20  N   UNK d   0     -19.309 -21.068  25.969  0.00  0.00    -0.248 NA
ATOM     21  C   UNK d   0     -18.657 -19.197  27.024  0.00  0.00    -0.011 A 
ATOM     22  C   UNK d   0     -18.457 -21.429  26.984  0.00  0.00     0.066 A 
ATOM     23  C   UNK d   0     -18.174 -22.782  27.098  0.00  0.00     0.062 C 
ATOM     24  C   UNK d   0     -18.073 -20.190  27.630  0.00  0.00    -0.020 A 
ATOM     25  C   UNK d   0     -18.581 -23.821  26.246  0.00  0.00     0.041 A 
ATOM     26  N   UNK d   0     -19.741 -24.054  25.622  0.00  0.00    -0.355 N 
ATOM     27  C   UNK d   0     -17.651 -24.835  25.927  0.00  0.00    -0.022 A 
ATOM     28  C   UNK d   0     -19.582 -25.182  24.910  0.00  0.00     0.042 A 
ATOM     29  H   UNK d   0     -20.673 -23.443  25.702  0.00  0.00     0.166 HD
ATOM     30  C   UNK d   0     -20.467 -25.876  24.071  0.00  0.00     0.062 C 
ATOM     31  C   UNK d   0     -18.276 -25.700  25.082  0.00  0.00    -0.013 A 
ATOM     32  C   UNK d   0     -21.375 -25.352  23.166  0.00  0.00     0.066 A 
BRANCH   8  33
ATOM     33  C   UNK d   0     -23.920 -25.022  20.533  0.00  0.00     0.151 C 
BRANCH  33  34
ATOM     34  C   UNK d   0     -25.296 -25.052  21.062  0.00  0.00     0.143 C 
ATOM     35  O   UNK d   0     -25.770 -24.074  21.657  0.00  0.00    -0.650 OA
BRANCH  34  36
ATOM     36  O   UNK d   0     -26.061 -26.183  20.891  0.00  0.00    -0.776 OA
ATOM     37  H   UNK d   0     -26.757 -26.468  21.593  0.00  0.00     0.167 HD
ENDBRANCH  34  36
ENDBRANCH  33  34
ENDBRANCH   8  33
BRANCH  31  38
ATOM     38  C   UNK d   0     -17.668 -26.936  24.462  0.00  0.00     0.151 C 
BRANCH  38  39
ATOM     39  C   UNK d   0     -18.089 -28.157  25.116  0.00  0.00     0.143 C 
ATOM     40  O   UNK d   0     -18.721 -29.047  24.521  0.00  0.00    -0.650 OA
BRANCH  39  41
ATOM     41  O   UNK d   0     -17.780 -28.356  26.462  0.00  0.00    -0.776 OA
ATOM     42  H   UNK d   0     -18.178 -29.187  26.909  0.00  0.00     0.167 HD
ENDBRANCH  39  41
ENDBRANCH  38  39
ENDBRANCH  31  38
BRANCH  27  43
ATOM     43  C   UNK d   0     -16.225 -25.008  26.388  0.00  0.00     0.052 C 
BRANCH  43  44
ATOM     44  C   UNK d   0     -16.084 -25.029  27.876  0.00  0.00     0.115 C 
BRANCH  44  45
ATOM     45  C   UNK d   0     -15.932 -26.455  28.267  0.00  0.00     0.139 C 
ATOM     46  O   UNK d   0     -14.837 -27.021  28.027  0.00  0.00    -0.650 OA
BRANCH  45  47
ATOM     47  O   UNK d   0     -16.935 -27.171  28.883  0.00  0.00    -0.776 OA
ATOM     48  H   UNK d   0     -16.749 -27.932  29.557  0.00  0.00     0.167 HD
ENDBRANCH  45  47
ENDBRANCH  44  45
ENDBRANCH  43  44
ENDBRANCH  27  43
BRANCH  24  49
ATOM     49  C   UNK d   0     -17.130 -20.086  28.757  0.00  0.00     0.052 C 
BRANCH  49  50
ATOM     50  C   UNK d   0     -17.371 -21.197  29.746  0.00  0.00     0.115 C 
BRANCH  50  51
ATOM     51  C   UNK d   0     -18.573 -21.111  30.564  0.00  0.00     0.139 C 
ATOM     52  O   UNK d   0     -18.616 -20.466  31.638  0.00  0.00    -0.650 OA
BRANCH  51  53
ATOM     53  O   UNK d   0     -19.728 -21.762  30.158  0.00  0.00    -0.776 OA
ATOM     54  H   UNK d   0     -20.565 -21.217  30.041  0.00  0.00     0.167 HD
ENDBRANCH  51  53
ENDBRANCH  50  51
ENDBRANCH  49  50
ENDBRANCH  24  49
BRANCH  21  55
ATOM     55  C   UNK d   0     -18.550 -17.740  27.333  0.00  0.00     0.151 C 
BRANCH  55  56
ATOM     56  C   UNK d   0     -19.298 -16.916  26.373  0.00  0.00     0.143 C 
ATOM     57  O   UNK d   0     -18.822 -16.554  25.279  0.00  0.00    -0.650 OA
BRANCH  56  58
ATOM     58  O   UNK d   0     -20.594 -16.533  26.717  0.00  0.00    -0.776 OA
ATOM     59  H   UNK d   0     -21.161 -17.272  27.170  0.00  0.00     0.167 HD
ENDBRANCH  56  58
ENDBRANCH  55  56
ENDBRANCH  21  55
BRANCH  18  60
ATOM     60  C   UNK d   0     -23.130 -18.162  24.566  0.00  0.00     0.151 C 
BRANCH  60  61
ATOM     61  C   UNK d   0     -22.870 -17.069  23.616  0.00  0.00     0.143 C 
ATOM     62  O   UNK d   0     -23.603 -16.690  22.702  0.00  0.00    -0.650 OA
BRANCH  61  63
ATOM     63  O   UNK d   0     -21.637 -16.396  23.794  0.00  0.00    -0.776 OA
ATOM     64  H   UNK d   0     -20.955 -16.361  23.058  0.00  0.00     0.167 HD
ENDBRANCH  61  63
ENDBRANCH  60  61
ENDBRANCH  18  60
BRANCH  14  65
ATOM     65  C   UNK d   0     -24.505 -19.987  22.571  0.00  0.00     0.052 C 
BRANCH  65  66
ATOM     66  C   UNK d   0     -25.555 -20.781  23.264  0.00  0.00     0.115 C 
BRANCH  66  67
ATOM     67  C   UNK d   0     -26.855 -20.209  23.476  0.00  0.00     0.139 C 
ATOM     68  O   UNK d   0     -27.397 -19.544  22.518  0.00  0.00    -0.650 OA
BRANCH  67  69
ATOM     69  O   UNK d   0     -27.640 -20.278  24.627  0.00  0.00    -0.776 OA
ATOM     70  H   UNK d   0     -28.290 -21.075  24.678  0.00  0.00     0.167 HD
ENDBRANCH  67  69
ENDBRANCH  66  67
ENDBRANCH  65  66
ENDBRANCH  14  65
ENDBRANCH   6   7
ENDBRANCH   5   6
ENDBRANCH   2   5
TORSDOF 28
ENDMDL
MODEL 7
REMARK VINA RESULT:      -9.2      1.276      7.472
REMARK  28 active torsions:
REMARK  status: ('A' for Active; 'I' for Inactive)
REMARK    1  A    between atoms: C_2  and  O_3 
REMARK    2  A    between atoms: C_2  and  C_4 
REMARK    3  A    between atoms: C_4  and  C_5 
REMARK    4  A    between atoms: C_5  and  C_6 
REMARK    5  A    between atoms: C_7  and  C_8 
REMARK    6  A    between atoms: C_8  and  C_9 
REMARK    7  A    between atoms: C_9  and  O_11 
REMARK    8  A    between atoms: C_28  and  C_29 
REMARK    9  A    between atoms: C_29  and  C_30 
REMARK   10  A    between atoms: C_30  and  O_32 
REMARK   11  A    between atoms: C_33  and  C_34 
REMARK   12  A    between atoms: C_34  and  C_35 
REMARK   13  A    between atoms: C_35  and  C_36 
REMARK   14  A    between atoms: C_36  and  O_38 
REMARK   15  A    between atoms: C_39  and  C_40 
REMARK   16  A    between atoms: C_40  and  C_41 
REMARK   17  A    between atoms: C_41  and  C_42 
REMARK   18  A    between atoms: C_42  and  O_44 
REMARK   19  A    between atoms: C_45  and  C_46 
REMARK   20  A    between atoms: C_46  and  C_47 
REMARK   21  A    between atoms: C_47  and  O_49 
REMARK   22  A    between atoms: C_50  and  C_51 
REMARK   23  A    between atoms: C_51  and  C_52 
REMARK   24  A    between atoms: C_52  and  O_54 
REMARK   25  A    between atoms: C_55  and  C_56 
REMARK   26  A    between atoms: C_56  and  C_57 
REMARK   27  A    between atoms: C_57  and  C_58 
REMARK   28  A    between atoms: C_58  and  O_60 
ROOT
ATOM      1  O   UNK d   0     -23.076 -13.957  25.322  0.00  0.00    -0.650 OA
ATOM      2  C   UNK d   0     -22.997 -14.936  26.097  0.00  0.00     0.139 C 
ENDROOT
BRANCH   2   3
ATOM      3  O   UNK d   0     -23.933 -15.084  27.092  0.00  0.00    -0.776 OA
ATOM      4  H   UNK d   0     -24.098 -14.343  27.776  0.00  0.00     0.167 HD
ENDBRANCH   2   3
BRANCH   2   5
ATOM      5  C   UNK d   0     -21.895 -15.928  25.940  0.00  0.00     0.115 C 
BRANCH   5   6
ATOM      6  C   UNK d   0     -21.620 -16.168  24.480  0.00  0.00     0.052 C 
BRANCH   6   7
ATOM      7  C   UNK d   0     -22.183 -17.481  23.992  0.00  0.00    -0.020 A 
ATOM      8  C   UNK d   0     -23.245 -17.668  23.251  0.00  0.00    -0.011 A 
ATOM      9  C   UNK d   0     -23.397 -19.099  23.044  0.00  0.00     0.067 A 
ATOM     10  C   UNK d   0     -24.288 -19.932  22.350  0.00  0.00     0.062 C 
ATOM     11  N   UNK d   0     -22.386 -19.708  23.699  0.00  0.00    -0.248 NA
ATOM     12  C   UNK d   0     -24.112 -21.284  22.034  0.00  0.00     0.041 A 
ATOM     13  N   UNK d   0     -23.634 -22.310  22.764  0.00  0.00    -0.355 N 
ATOM     14  C   UNK d   0     -24.412 -21.723  20.732  0.00  0.00    -0.022 A 
ATOM     15  C   UNK d   0     -23.615 -23.387  21.956  0.00  0.00     0.042 A 
ATOM     16  H   UNK d   0     -23.334 -22.278  23.835  0.00  0.00     0.166 HD
ATOM     17  C   UNK d   0     -23.210 -24.712  22.210  0.00  0.00     0.062 C 
ATOM     18  C   UNK d   0     -24.095 -23.058  20.673  0.00  0.00    -0.013 A 
ATOM     19  C   UNK d   0     -22.093 -25.162  22.865  0.00  0.00     0.067 A 
ATOM     20  N   UNK d   0     -21.375 -24.254  23.531  0.00  0.00    -0.248 NA
ATOM     21  C   UNK d   0     -21.424 -26.442  23.032  0.00  0.00    -0.011 A 
ATOM     22  C   UNK d   0     -20.285 -24.846  24.120  0.00  0.00     0.066 A 
ATOM     23  C   UNK d   0     -19.470 -24.019  24.880  0.00  0.00     0.062 C 
ATOM     24  C   UNK d   0     -20.365 -26.249  23.764  0.00  0.00    -0.020 A 
ATOM     25  C   UNK d   0     -19.671 -22.667  25.195  0.00  0.00     0.041 A 
ATOM     26  N   UNK d   0     -20.133 -21.644  24.466  0.00  0.00    -0.355 N 
ATOM     27  C   UNK d   0     -19.374 -22.228  26.504  0.00  0.00    -0.022 A 
ATOM     28  C   UNK d   0     -20.144 -20.567  25.267  0.00  0.00     0.042 A 
ATOM     29  H   UNK d   0     -20.423 -21.675  23.387  0.00  0.00     0.166 HD
ATOM     30  C   UNK d   0     -20.535 -19.241  25.025  0.00  0.00     0.062 C 
ATOM     31  C   UNK d   0     -19.671 -20.901  26.558  0.00  0.00    -0.013 A 
ATOM     32  C   UNK d   0     -21.620 -18.790  24.289  0.00  0.00     0.066 A 
BRANCH   8  33
ATOM     33  C   UNK d   0     -24.145 -16.630  22.717  0.00  0.00     0.151 C 
BRANCH  33  34
ATOM     34  C   UNK d   0     -24.995 -16.021  23.756  0.00  0.00     0.143 C 
ATOM     35  O   UNK d   0     -25.371 -16.678  24.737  0.00  0.00    -0.650 OA
BRANCH  34  36
ATOM     36  O   UNK d   0     -25.374 -14.704  23.633  0.00  0.00    -0.776 OA
ATOM     37  H   UNK d   0     -25.084 -13.998  24.323  0.00  0.00     0.167 HD
ENDBRANCH  34  36
ENDBRANCH  33  34
ENDBRANCH   8  33
BRANCH  31  38
ATOM     38  C   UNK d   0     -19.528 -20.004  27.766  0.00  0.00     0.151 C 
BRANCH  38  39
ATOM     39  C   UNK d   0     -18.222 -19.386  27.855  0.00  0.00     0.143 C 
ATOM     40  O   UNK d   0     -17.251 -19.957  28.381  0.00  0.00    -0.650 OA
BRANCH  39  41
ATOM     41  O   UNK d   0     -18.031 -18.106  27.335  0.00  0.00    -0.776 OA
ATOM     42  H   UNK d   0     -18.604 -17.847  26.525  0.00  0.00     0.167 HD
ENDBRANCH  39  41
ENDBRANCH  38  39
ENDBRANCH  31  38
BRANCH  27  43
ATOM     43  C   UNK d   0     -18.830 -23.006  27.676  0.00  0.00     0.052 C 
BRANCH  43  44
ATOM     44  C   UNK d   0     -17.365 -23.282  27.572  0.00  0.00     0.115 C 
BRANCH  44  45
ATOM     45  C   UNK d   0     -17.193 -24.744  27.773  0.00  0.00     0.139 C 
ATOM     46  O   UNK d   0     -18.221 -25.465  27.784  0.00  0.00    -0.650 OA
BRANCH  45  47
ATOM     47  O   UNK d   0     -15.960 -25.335  27.942  0.00  0.00    -0.776 OA
ATOM     48  H   UNK d   0     -15.099 -24.972  27.501  0.00  0.00     0.167 HD
ENDBRANCH  45  47
ENDBRANCH  44  45
ENDBRANCH  43  44
ENDBRANCH  27  43
BRANCH  24  49
ATOM     49  C   UNK d   0     -19.417 -27.285  24.211  0.00  0.00     0.052 C 
BRANCH  49  50
ATOM     50  C   UNK d   0     -18.332 -27.481  23.184  0.00  0.00     0.115 C 
BRANCH  50  51
ATOM     51  C   UNK d   0     -17.125 -26.678  23.330  0.00  0.00     0.139 C 
ATOM     52  O   UNK d   0     -16.418 -26.336  22.353  0.00  0.00    -0.650 OA
BRANCH  51  53
ATOM     53  O   UNK d   0     -16.724 -26.266  24.591  0.00  0.00    -0.776 OA
ATOM     54  H   UNK d   0     -17.352 -26.412  25.362  0.00  0.00     0.167 HD
ENDBRANCH  51  53
ENDBRANCH  50  51
ENDBRANCH  49  50
ENDBRANCH  24  49
BRANCH  21  55
ATOM     55  C   UNK d   0     -21.915 -27.724  22.447  0.00  0.00     0.151 C 
BRANCH  55  56
ATOM     56  C   UNK d   0     -22.713 -28.499  23.409  0.00  0.00     0.143 C 
ATOM     57  O   UNK d   0     -22.213 -29.353  24.168  0.00  0.00    -0.650 OA
BRANCH  56  58
ATOM     58  O   UNK d   0     -24.085 -28.256  23.460  0.00  0.00    -0.776 OA
ATOM     59  H   UNK d   0     -24.584 -28.382  22.561  0.00  0.00     0.167 HD
ENDBRANCH  56  58
ENDBRANCH  55  56
ENDBRANCH  21  55
BRANCH  18  60
ATOM     60  C   UNK d   0     -24.252 -23.931  19.453  0.00  0.00     0.151 C 
BRANCH  60  61
ATOM     61  C   UNK d   0     -23.111 -23.613  18.580  0.00  0.00     0.143 C 
ATOM     62  O   UNK d   0     -22.002 -23.206  18.927  0.00  0.00    -0.650 OA
BRANCH  61  63
ATOM     63  O   UNK d   0     -23.340 -23.804  17.196  0.00  0.00    -0.776 OA
ATOM     64  H   UNK d   0     -22.930 -23.192  16.514  0.00  0.00     0.167 HD
ENDBRANCH  61  63
ENDBRANCH  60  61
ENDBRANCH  18  60
BRANCH  14  65
ATOM     65  C   UNK d   0     -25.060 -21.008  19.581  0.00  0.00     0.052 C 
BRANCH  65  66
ATOM     66  C   UNK d   0     -24.109 -20.158  18.814  0.00  0.00     0.115 C 
BRANCH  66  67
ATOM     67  C   UNK d   0     -24.022 -20.297  17.388  0.00  0.00     0.139 C 
ATOM     68  O   UNK d   0     -23.157 -19.586  16.754  0.00  0.00    -0.650 OA
BRANCH  67  69
ATOM     69  O   UNK d   0     -24.778 -21.129  16.563  0.00  0.00    -0.776 OA
ATOM     70  H   UNK d   0     -24.428 -22.092  16.457  0.00  0.00     0.167 HD
ENDBRANCH  67  69
ENDBRANCH  66  67
ENDBRANCH  65  66
ENDBRANCH  14  65
ENDBRANCH   6   7
ENDBRANCH   5   6
ENDBRANCH   2   5
TORSDOF 28
ENDMDL
MODEL 8
REMARK VINA RESULT:      -9.0      1.875      2.766
REMARK  28 active torsions:
REMARK  status: ('A' for Active; 'I' for Inactive)
REMARK    1  A    between atoms: C_2  and  O_3 
REMARK    2  A    between atoms: C_2  and  C_4 
REMARK    3  A    between atoms: C_4  and  C_5 
REMARK    4  A    between atoms: C_5  and  C_6 
REMARK    5  A    between atoms: C_7  and  C_8 
REMARK    6  A    between atoms: C_8  and  C_9 
REMARK    7  A    between atoms: C_9  and  O_11 
REMARK    8  A    between atoms: C_28  and  C_29 
REMARK    9  A    between atoms: C_29  and  C_30 
REMARK   10  A    between atoms: C_30  and  O_32 
REMARK   11  A    between atoms: C_33  and  C_34 
REMARK   12  A    between atoms: C_34  and  C_35 
REMARK   13  A    between atoms: C_35  and  C_36 
REMARK   14  A    between atoms: C_36  and  O_38 
REMARK   15  A    between atoms: C_39  and  C_40 
REMARK   16  A    between atoms: C_40  and  C_41 
REMARK   17  A    between atoms: C_41  and  C_42 
REMARK   18  A    between atoms: C_42  and  O_44 
REMARK   19  A    between atoms: C_45  and  C_46 
REMARK   20  A    between atoms: C_46  and  C_47 
REMARK   21  A    between atoms: C_47  and  O_49 
REMARK   22  A    between atoms: C_50  and  C_51 
REMARK   23  A    between atoms: C_51  and  C_52 
REMARK   24  A    between atoms: C_52  and  O_54 
REMARK   25  A    between atoms: C_55  and  C_56 
REMARK   26  A    between atoms: C_56  and  C_57 
REMARK   27  A    between atoms: C_57  and  C_58 
REMARK   28  A    between atoms: C_58  and  O_60 
ROOT
ATOM      1  O   UNK d   0     -25.281 -16.243  22.104  0.00  0.00    -0.650 OA
ATOM      2  C   UNK d   0     -24.598 -15.847  23.074  0.00  0.00     0.139 C 
ENDROOT
BRANCH   2   3
ATOM      3  O   UNK d   0     -25.136 -14.936  23.950  0.00  0.00    -0.776 OA
ATOM      4  H   UNK d   0     -24.978 -15.015  24.957  0.00  0.00     0.167 HD
ENDBRANCH   2   3
BRANCH   2   5
ATOM      5  C   UNK d   0     -23.213 -16.361  23.272  0.00  0.00     0.115 C 
BRANCH   5   6
ATOM      6  C   UNK d   0     -23.023 -16.801  24.699  0.00  0.00     0.052 C 
BRANCH   6   7
ATOM      7  C   UNK d   0     -22.172 -18.042  24.816  0.00  0.00    -0.020 A 
ATOM      8  C   UNK d   0     -21.045 -18.179  25.466  0.00  0.00    -0.011 A 
ATOM      9  C   UNK d   0     -20.590 -19.548  25.286  0.00  0.00     0.067 A 
ATOM     10  C   UNK d   0     -19.502 -20.319  25.723  0.00  0.00     0.062 C 
ATOM     11  N   UNK d   0     -21.499 -20.172  24.507  0.00  0.00    -0.248 NA
ATOM     12  C   UNK d   0     -19.377 -21.712  25.673  0.00  0.00     0.041 A 
ATOM     13  N   UNK d   0     -19.685 -22.595  24.705  0.00  0.00    -0.355 N 
ATOM     14  C   UNK d   0     -18.904 -22.394  26.809  0.00  0.00    -0.022 A 
ATOM     15  C   UNK d   0     -19.428 -23.821  25.200  0.00  0.00     0.042 A 
ATOM     16  H   UNK d   0     -20.058 -22.356  23.685  0.00  0.00     0.166 HD
ATOM     17  C   UNK d   0     -19.570 -25.092  24.610  0.00  0.00     0.062 C 
ATOM     18  C   UNK d   0     -18.937 -23.735  26.517  0.00  0.00    -0.013 A 
ATOM     19  C   UNK d   0     -20.615 -25.589  23.873  0.00  0.00     0.067 A 
ATOM     20  N   UNK d   0     -21.547 -24.717  23.481  0.00  0.00    -0.248 NA
ATOM     21  C   UNK d   0     -21.019 -26.897  23.383  0.00  0.00    -0.011 A 
ATOM     22  C   UNK d   0     -22.531 -25.359  22.770  0.00  0.00     0.066 A 
ATOM     23  C   UNK d   0     -23.548 -24.562  22.267  0.00  0.00     0.062 C 
ATOM     24  C   UNK d   0     -22.143 -26.756  22.742  0.00  0.00    -0.020 A 
ATOM     25  C   UNK d   0     -23.650 -23.163  22.318  0.00  0.00     0.041 A 
ATOM     26  N   UNK d   0     -23.357 -22.286  23.286  0.00  0.00    -0.355 N 
ATOM     27  C   UNK d   0     -24.120 -22.479  21.175  0.00  0.00    -0.022 A 
ATOM     28  C   UNK d   0     -23.621 -21.063  22.797  0.00  0.00     0.042 A 
ATOM     29  H   UNK d   0     -22.992 -22.528  24.314  0.00  0.00     0.166 HD
ATOM     30  C   UNK d   0     -23.493 -19.791  23.376  0.00  0.00     0.062 C 
ATOM     31  C   UNK d   0     -24.104 -21.150  21.470  0.00  0.00    -0.013 A 
ATOM     32  C   UNK d   0     -22.475 -19.321  24.191  0.00  0.00     0.066 A 
BRANCH   8  33
ATOM     33  C   UNK d   0     -20.341 -17.143  26.244  0.00  0.00     0.151 C 
BRANCH  33  34
ATOM     34  C   UNK d   0     -19.074 -16.722  25.619  0.00  0.00     0.143 C 
ATOM     35  O   UNK d   0     -18.092 -16.421  26.312  0.00  0.00    -0.650 OA
BRANCH  34  36
ATOM     36  O   UNK d   0     -18.984 -16.663  24.248  0.00  0.00    -0.776 OA
ATOM     37  H   UNK d   0     -18.266 -17.193  23.736  0.00  0.00     0.167 HD
ENDBRANCH  34  36
ENDBRANCH  33  34
ENDBRANCH   8  33
BRANCH  31  38
ATOM     38  C   UNK d   0     -24.511 -20.027  20.545  0.00  0.00     0.151 C 
BRANCH  38  39
ATOM     39  C   UNK d   0     -25.821 -19.494  20.850  0.00  0.00     0.143 C 
ATOM     40  O   UNK d   0     -26.598 -20.052  21.645  0.00  0.00    -0.650 OA
BRANCH  39  41
ATOM     41  O   UNK d   0     -26.241 -18.313  20.239  0.00  0.00    -0.776 OA
ATOM     42  H   UNK d   0     -27.186 -18.309  19.843  0.00  0.00     0.167 HD
ENDBRANCH  39  41
ENDBRANCH  38  39
ENDBRANCH  31  38
BRANCH  27  43
ATOM     43  C   UNK d   0     -24.574 -23.030  19.847  0.00  0.00     0.052 C 
BRANCH  43  44
ATOM     44  C   UNK d   0     -23.445 -23.479  18.977  0.00  0.00     0.115 C 
BRANCH  44  45
ATOM     45  C   UNK d   0     -23.293 -22.451  17.915  0.00  0.00     0.139 C 
ATOM     46  O   UNK d   0     -22.150 -22.267  17.429  0.00  0.00    -0.650 OA
BRANCH  45  47
ATOM     47  O   UNK d   0     -24.349 -21.702  17.443  0.00  0.00    -0.776 OA
ATOM     48  H   UNK d   0     -24.274 -20.692  17.241  0.00  0.00     0.167 HD
ENDBRANCH  45  47
ENDBRANCH  44  45
ENDBRANCH  43  44
ENDBRANCH  27  43
BRANCH  24  49
ATOM     49  C   UNK d   0     -22.887 -27.822  22.050  0.00  0.00     0.052 C 
BRANCH  49  50
ATOM     50  C   UNK d   0     -22.486 -27.885  20.599  0.00  0.00     0.115 C 
BRANCH  50  51
ATOM     51  C   UNK d   0     -23.396 -27.287  19.631  0.00  0.00     0.139 C 
ATOM     52  O   UNK d   0     -23.137 -27.231  18.405  0.00  0.00    -0.650 OA
BRANCH  51  53
ATOM     53  O   UNK d   0     -24.600 -26.751  20.060  0.00  0.00    -0.776 OA
ATOM     54  H   UNK d   0     -24.823 -26.809  21.038  0.00  0.00     0.167 HD
ENDBRANCH  51  53
ENDBRANCH  50  51
ENDBRANCH  49  50
ENDBRANCH  24  49
BRANCH  21  55
ATOM     55  C   UNK d   0     -20.236 -28.149  23.603  0.00  0.00     0.151 C 
BRANCH  55  56
ATOM     56  C   UNK d   0     -18.843 -28.015  23.151  0.00  0.00     0.143 C 
ATOM     57  O   UNK d   0     -17.877 -27.993  23.940  0.00  0.00    -0.650 OA
BRANCH  56  58
ATOM     58  O   UNK d   0     -18.612 -27.909  21.781  0.00  0.00    -0.776 OA
ATOM     59  H   UNK d   0     -19.465 -27.814  21.201  0.00  0.00     0.167 HD
ENDBRANCH  56  58
ENDBRANCH  55  56
ENDBRANCH  21  55
BRANCH  18  60
ATOM     60  C   UNK d   0     -18.522 -24.835  27.461  0.00  0.00     0.151 C 
BRANCH  60  61
ATOM     61  C   UNK d   0     -17.221 -25.318  26.972  0.00  0.00     0.143 C 
ATOM     62  O   UNK d   0     -16.193 -24.656  26.821  0.00  0.00    -0.650 OA
BRANCH  61  63
ATOM     63  O   UNK d   0     -17.172 -26.695  26.648  0.00  0.00    -0.776 OA
ATOM     64  H   UNK d   0     -17.025 -27.000  25.702  0.00  0.00     0.167 HD
ENDBRANCH  61  63
ENDBRANCH  60  61
ENDBRANCH  18  60
BRANCH  14  65
ATOM     65  C   UNK d   0     -18.338 -21.874  28.100  0.00  0.00     0.052 C 
BRANCH  65  66
ATOM     66  C   UNK d   0     -19.380 -21.360  29.028  0.00  0.00     0.115 C 
BRANCH  66  67
ATOM     67  C   UNK d   0     -20.056 -22.268  29.912  0.00  0.00     0.139 C 
ATOM     68  O   UNK d   0     -20.115 -21.976  31.163  0.00  0.00    -0.650 OA
BRANCH  67  69
ATOM     69  O   UNK d   0     -20.681 -23.471  29.586  0.00  0.00    -0.776 OA
ATOM     70  H   UNK d   0     -20.589 -24.226  30.281  0.00  0.00     0.167 HD
ENDBRANCH  67  69
ENDBRANCH  66  67
ENDBRANCH  65  66
ENDBRANCH  14  65
ENDBRANCH   6   7
ENDBRANCH   5   6
ENDBRANCH   2   5
TORSDOF 28
ENDMDL
MODEL 9
REMARK VINA RESULT:      -8.9      2.047      8.188
REMARK  28 active torsions:
REMARK  status: ('A' for Active; 'I' for Inactive)
REMARK    1  A    between atoms: C_2  and  O_3 
REMARK    2  A    between atoms: C_2  and  C_4 
REMARK    3  A    between atoms: C_4  and  C_5 
REMARK    4  A    between atoms: C_5  and  C_6 
REMARK    5  A    between atoms: C_7  and  C_8 
REMARK    6  A    between atoms: C_8  and  C_9 
REMARK    7  A    between atoms: C_9  and  O_11 
REMARK    8  A    between atoms: C_28  and  C_29 
REMARK    9  A    between atoms: C_29  and  C_30 
REMARK   10  A    between atoms: C_30  and  O_32 
REMARK   11  A    between atoms: C_33  and  C_34 
REMARK   12  A    between atoms: C_34  and  C_35 
REMARK   13  A    between atoms: C_35  and  C_36 
REMARK   14  A    between atoms: C_36  and  O_38 
REMARK   15  A    between atoms: C_39  and  C_40 
REMARK   16  A    between atoms: C_40  and  C_41 
REMARK   17  A    between atoms: C_41  and  C_42 
REMARK   18  A    between atoms: C_42  and  O_44 
REMARK   19  A    between atoms: C_45  and  C_46 
REMARK   20  A    between atoms: C_46  and  C_47 
REMARK   21  A    between atoms: C_47  and  O_49 
REMARK   22  A    between atoms: C_50  and  C_51 
REMARK   23  A    between atoms: C_51  and  C_52 
REMARK   24  A    between atoms: C_52  and  O_54 
REMARK   25  A    between atoms: C_55  and  C_56 
REMARK   26  A    between atoms: C_56  and  C_57 
REMARK   27  A    between atoms: C_57  and  C_58 
REMARK   28  A    between atoms: C_58  and  O_60 
ROOT
ATOM      1  O   UNK d   0     -16.615 -28.996  26.135  0.00  0.00    -0.650 OA
ATOM      2  C   UNK d   0     -17.733 -28.605  25.733  0.00  0.00     0.139 C 
ENDROOT
BRANCH   2   3
ATOM      3  O   UNK d   0     -18.820 -29.438  25.852  0.00  0.00    -0.776 OA
ATOM      4  H   UNK d   0     -19.422 -29.405  26.677  0.00  0.00     0.167 HD
ENDBRANCH   2   3
BRANCH   2   5
ATOM      5  C   UNK d   0     -17.881 -27.250  25.131  0.00  0.00     0.115 C 
BRANCH   5   6
ATOM      6  C   UNK d   0     -17.726 -26.193  26.191  0.00  0.00     0.052 C 
BRANCH   6   7
ATOM      7  C   UNK d   0     -18.500 -24.936  25.875  0.00  0.00    -0.020 A 
ATOM      8  C   UNK d   0     -18.397 -23.768  26.456  0.00  0.00    -0.011 A 
ATOM      9  C   UNK d   0     -19.348 -22.870  25.822  0.00  0.00     0.067 A 
ATOM     10  C   UNK d   0     -19.711 -21.520  25.956  0.00  0.00     0.062 C 
ATOM     11  N   UNK d   0     -19.991 -23.576  24.868  0.00  0.00    -0.248 NA
ATOM     12  C   UNK d   0     -20.460 -20.752  25.059  0.00  0.00     0.041 A 
ATOM     13  N   UNK d   0     -21.576 -21.040  24.361  0.00  0.00    -0.355 N 
ATOM     14  C   UNK d   0     -20.012 -19.459  24.731  0.00  0.00    -0.022 A 
ATOM     15  C   UNK d   0     -21.842 -19.966  23.593  0.00  0.00     0.042 A 
ATOM     16  H   UNK d   0     -22.174 -21.975  24.425  0.00  0.00     0.166 HD
ATOM     17  C   UNK d   0     -22.888 -19.735  22.678  0.00  0.00     0.062 C 
ATOM     18  C   UNK d   0     -20.884 -18.955  23.798  0.00  0.00    -0.013 A 
ATOM     19  C   UNK d   0     -23.392 -20.572  21.715  0.00  0.00     0.067 A 
ATOM     20  N   UNK d   0     -22.994 -21.847  21.753  0.00  0.00    -0.248 NA
ATOM     21  C   UNK d   0     -24.289 -20.438  20.580  0.00  0.00    -0.011 A 
ATOM     22  C   UNK d   0     -23.565 -22.555  20.724  0.00  0.00     0.066 A 
ATOM     23  C   UNK d   0     -23.266 -23.908  20.667  0.00  0.00     0.062 C 
ATOM     24  C   UNK d   0     -24.383 -21.601  20.002  0.00  0.00    -0.020 A 
ATOM     25  C   UNK d   0     -22.521 -24.664  21.585  0.00  0.00     0.041 A 
ATOM     26  N   UNK d   0     -21.404 -24.384  22.267  0.00  0.00    -0.355 N 
ATOM     27  C   UNK d   0     -22.974 -25.960  21.917  0.00  0.00    -0.022 A 
ATOM     28  C   UNK d   0     -21.131 -25.456  23.027  0.00  0.00     0.042 A 
ATOM     29  H   UNK d   0     -20.799 -23.447  22.194  0.00  0.00     0.166 HD
ATOM     30  C   UNK d   0     -20.089 -25.703  23.935  0.00  0.00     0.062 C 
ATOM     31  C   UNK d   0     -22.101 -26.467  22.830  0.00  0.00    -0.013 A 
ATOM     32  C   UNK d   0     -19.527 -24.826  24.849  0.00  0.00     0.066 A 
BRANCH   8  33
ATOM     33  C   UNK d   0     -17.492 -23.407  27.563  0.00  0.00     0.151 C 
BRANCH  33  34
ATOM     34  C   UNK d   0     -18.188 -22.735  28.674  0.00  0.00     0.143 C 
ATOM     35  O   UNK d   0     -17.828 -21.617  29.069  0.00  0.00    -0.650 OA
BRANCH  34  36
ATOM     36  O   UNK d   0     -19.252 -23.361  29.281  0.00  0.00    -0.776 OA
ATOM     37  H   UNK d   0     -19.762 -22.917  30.057  0.00  0.00     0.167 HD
ENDBRANCH  34  36
ENDBRANCH  33  34
ENDBRANCH   8  33
BRANCH  31  38
ATOM     38  C   UNK d   0     -22.187 -27.826  23.486  0.00  0.00     0.151 C 
BRANCH  38  39
ATOM     39  C   UNK d   0     -21.276 -28.789  22.904  0.00  0.00     0.143 C 
ATOM     40  O   UNK d   0     -20.688 -29.645  23.588  0.00  0.00    -0.650 OA
BRANCH  39  41
ATOM     41  O   UNK d   0     -21.041 -28.768  21.530  0.00  0.00    -0.776 OA
ATOM     42  H   UNK d   0     -20.666 -27.898  21.139  0.00  0.00     0.167 HD
ENDBRANCH  39  41
ENDBRANCH  38  39
ENDBRANCH  31  38
BRANCH  27  43
ATOM     43  C   UNK d   0     -24.177 -26.714  21.409  0.00  0.00     0.052 C 
BRANCH  43  44
ATOM     44  C   UNK d   0     -25.472 -26.032  21.709  0.00  0.00     0.115 C 
BRANCH  44  45
ATOM     45  C   UNK d   0     -25.673 -26.129  23.178  0.00  0.00     0.139 C 
ATOM     46  O   UNK d   0     -25.712 -25.064  23.841  0.00  0.00    -0.650 OA
BRANCH  45  47
ATOM     47  O   UNK d   0     -25.821 -27.332  23.834  0.00  0.00    -0.776 OA
ATOM     48  H   UNK d   0     -25.110 -28.081  23.800  0.00  0.00     0.167 HD
ENDBRANCH  45  47
ENDBRANCH  44  45
ENDBRANCH  43  44
ENDBRANCH  27  43
BRANCH  24  49
ATOM     49  C   UNK d   0     -25.220 -21.925  18.834  0.00  0.00     0.052 C 
BRANCH  49  50
ATOM     50  C   UNK d   0     -24.655 -21.288  17.590  0.00  0.00     0.115 C 
BRANCH  50  51
ATOM     51  C   UNK d   0     -23.234 -21.481  17.331  0.00  0.00     0.139 C 
ATOM     52  O   UNK d   0     -22.753 -22.588  16.994  0.00  0.00    -0.650 OA
BRANCH  51  53
ATOM     53  O   UNK d   0     -22.362 -20.411  17.460  0.00  0.00    -0.776 OA
ATOM     54  H   UNK d   0     -21.762 -20.190  16.684  0.00  0.00     0.167 HD
ENDBRANCH  51  53
ENDBRANCH  50  51
ENDBRANCH  49  50
ENDBRANCH  24  49
BRANCH  21  55
ATOM     55  C   UNK d   0     -24.963 -19.163  20.194  0.00  0.00     0.151 C 
BRANCH  55  56
ATOM     56  C   UNK d   0     -25.737 -18.590  21.305  0.00  0.00     0.143 C 
ATOM     57  O   UNK d   0     -26.646 -19.213  21.887  0.00  0.00    -0.650 OA
BRANCH  56  58
ATOM     58  O   UNK d   0     -25.426 -17.293  21.712  0.00  0.00    -0.776 OA
ATOM     59  H   UNK d   0     -24.628 -16.859  21.214  0.00  0.00     0.167 HD
ENDBRANCH  56  58
ENDBRANCH  55  56
ENDBRANCH  21  55
BRANCH  18  60
ATOM     60  C   UNK d   0     -20.775 -17.592  23.161  0.00  0.00     0.151 C 
BRANCH  60  61
ATOM     61  C   UNK d   0     -21.722 -16.731  23.885  0.00  0.00     0.143 C 
ATOM     62  O   UNK d   0     -21.560 -16.215  24.992  0.00  0.00    -0.650 OA
BRANCH  61  63
ATOM     63  O   UNK d   0     -22.944 -16.483  23.215  0.00  0.00    -0.776 OA
ATOM     64  H   UNK d   0     -23.592 -17.227  23.026  0.00  0.00     0.167 HD
ENDBRANCH  61  63
ENDBRANCH  60  61
ENDBRANCH  18  60
BRANCH  14  65
ATOM     65  C   UNK d   0     -18.892 -18.636  25.299  0.00  0.00     0.052 C 
BRANCH  65  66
ATOM     66  C   UNK d   0     -19.253 -17.964  26.577  0.00  0.00     0.115 C 
BRANCH  66  67
ATOM     67  C   UNK d   0     -18.472 -16.854  27.043  0.00  0.00     0.139 C 
ATOM     68  O   UNK d   0     -17.888 -16.106  26.175  0.00  0.00    -0.650 OA
BRANCH  67  69
ATOM     69  O   UNK d   0     -18.251 -16.460  28.363  0.00  0.00    -0.776 OA
ATOM     70  H   UNK d   0     -18.996 -15.894  28.792  0.00  0.00     0.167 HD
ENDBRANCH  67  69
ENDBRANCH  66  67
ENDBRANCH  65  66
ENDBRANCH  14  65
ENDBRANCH   6   7
ENDBRANCH   5   6
ENDBRANCH   2   5
TORSDOF 28
ENDMDL
MODEL 10
REMARK VINA RESULT:      -8.9      2.878      7.809
REMARK  28 active torsions:
REMARK  status: ('A' for Active; 'I' for Inactive)
REMARK    1  A    between atoms: C_2  and  O_3 
REMARK    2  A    between atoms: C_2  and  C_4 
REMARK    3  A    between atoms: C_4  and  C_5 
REMARK    4  A    between atoms: C_5  and  C_6 
REMARK    5  A    between atoms: C_7  and  C_8 
REMARK    6  A    between atoms: C_8  and  C_9 
REMARK    7  A    between atoms: C_9  and  O_11 
REMARK    8  A    between atoms: C_28  and  C_29 
REMARK    9  A    between atoms: C_29  and  C_30 
REMARK   10  A    between atoms: C_30  and  O_32 
REMARK   11  A    between atoms: C_33  and  C_34 
REMARK   12  A    between atoms: C_34  and  C_35 
REMARK   13  A    between atoms: C_35  and  C_36 
REMARK   14  A    between atoms: C_36  and  O_38 
REMARK   15  A    between atoms: C_39  and  C_40 
REMARK   16  A    between atoms: C_40  and  C_41 
REMARK   17  A    between atoms: C_41  and  C_42 
REMARK   18  A    between atoms: C_42  and  O_44 
REMARK   19  A    between atoms: C_45  and  C_46 
REMARK   20  A    between atoms: C_46  and  C_47 
REMARK   21  A    between atoms: C_47  and  O_49 
REMARK   22  A    between atoms: C_50  and  C_51 
REMARK   23  A    between atoms: C_51  and  C_52 
REMARK   24  A    between atoms: C_52  and  O_54 
REMARK   25  A    between atoms: C_55  and  C_56 
REMARK   26  A    between atoms: C_56  and  C_57 
REMARK   27  A    between atoms: C_57  and  C_58 
REMARK   28  A    between atoms: C_58  and  O_60 
ROOT
ATOM      1  O   UNK d   0     -18.244 -19.483  27.812  0.00  0.00    -0.650 OA
ATOM      2  C   UNK d   0     -17.556 -20.296  28.469  0.00  0.00     0.139 C 
ENDROOT
BRANCH   2   3
ATOM      3  O   UNK d   0     -16.393 -19.869  29.062  0.00  0.00    -0.776 OA
ATOM      4  H   UNK d   0     -16.314 -18.927  29.452  0.00  0.00     0.167 HD
ENDBRANCH   2   3
BRANCH   2   5
ATOM      5  C   UNK d   0     -17.999 -21.712  28.604  0.00  0.00     0.115 C 
BRANCH   5   6
ATOM      6  C   UNK d   0     -16.880 -22.643  28.219  0.00  0.00     0.052 C 
BRANCH   6   7
ATOM      7  C   UNK d   0     -17.314 -23.693  27.225  0.00  0.00    -0.020 A 
ATOM      8  C   UNK d   0     -16.771 -24.865  27.013  0.00  0.00    -0.011 A 
ATOM      9  C   UNK d   0     -17.525 -25.520  25.958  0.00  0.00     0.067 A 
ATOM     10  C   UNK d   0     -17.476 -26.758  25.298  0.00  0.00     0.062 C 
ATOM     11  N   UNK d   0     -18.505 -24.673  25.580  0.00  0.00    -0.248 NA
ATOM     12  C   UNK d   0     -18.467 -27.327  24.491  0.00  0.00     0.041 A 
ATOM     13  N   UNK d   0     -19.253 -26.789  23.539  0.00  0.00    -0.355 N 
ATOM     14  C   UNK d   0     -18.802 -28.681  24.677  0.00  0.00    -0.022 A 
ATOM     15  C   UNK d   0     -20.083 -27.763  23.122  0.00  0.00     0.042 A 
ATOM     16  H   UNK d   0     -19.208 -25.745  23.156  0.00  0.00     0.166 HD
ATOM     17  C   UNK d   0     -21.099 -27.742  22.146  0.00  0.00     0.062 C 
ATOM     18  C   UNK d   0     -19.831 -28.964  23.813  0.00  0.00    -0.013 A 
ATOM     19  C   UNK d   0     -22.071 -26.799  21.934  0.00  0.00     0.067 A 
ATOM     20  N   UNK d   0     -21.948 -25.644  22.593  0.00  0.00    -0.248 NA
ATOM     21  C   UNK d   0     -23.288 -26.712  21.144  0.00  0.00    -0.011 A 
ATOM     22  C   UNK d   0     -22.997 -24.809  22.294  0.00  0.00     0.066 A 
ATOM     23  C   UNK d   0     -22.974 -23.555  22.885  0.00  0.00     0.062 C 
ATOM     24  C   UNK d   0     -23.827 -25.547  21.363  0.00  0.00    -0.020 A 
ATOM     25  C   UNK d   0     -21.963 -22.997  23.682  0.00  0.00     0.041 A 
ATOM     26  N   UNK d   0     -21.192 -23.529  24.639  0.00  0.00    -0.355 N 
ATOM     27  C   UNK d   0     -21.624 -21.640  23.492  0.00  0.00    -0.022 A 
ATOM     28  C   UNK d   0     -20.370 -22.557  25.063  0.00  0.00     0.042 A 
ATOM     29  H   UNK d   0     -21.245 -24.575  25.030  0.00  0.00     0.166 HD
ATOM     30  C   UNK d   0     -19.361 -22.561  26.039  0.00  0.00     0.062 C 
ATOM     31  C   UNK d   0     -20.617 -21.353  24.361  0.00  0.00    -0.013 A 
ATOM     32  C   UNK d   0     -18.434 -23.556  26.305  0.00  0.00     0.066 A 
BRANCH   8  33
ATOM     33  C   UNK d   0     -15.601 -25.436  27.706  0.00  0.00     0.151 C 
BRANCH  33  34
ATOM     34  C   UNK d   0     -15.876 -26.759  28.293  0.00  0.00     0.143 C 
ATOM     35  O   UNK d   0     -16.775 -26.909  29.133  0.00  0.00    -0.650 OA
BRANCH  34  36
ATOM     36  O   UNK d   0     -15.121 -27.841  27.903  0.00  0.00    -0.776 OA
ATOM     37  H   UNK d   0     -15.200 -28.234  26.956  0.00  0.00     0.167 HD
ENDBRANCH  34  36
ENDBRANCH  33  34
ENDBRANCH   8  33
BRANCH  31  38
ATOM     38  C   UNK d   0     -19.919 -20.021  24.509  0.00  0.00     0.151 C 
BRANCH  38  39
ATOM     39  C   UNK d   0     -20.679 -19.073  25.297  0.00  0.00     0.143 C 
ATOM     40  O   UNK d   0     -21.217 -18.070  24.795  0.00  0.00    -0.650 OA
BRANCH  39  41
ATOM     41  O   UNK d   0     -20.823 -19.281  26.668  0.00  0.00    -0.776 OA
ATOM     42  H   UNK d   0     -20.534 -20.196  27.029  0.00  0.00     0.167 HD
ENDBRANCH  39  41
ENDBRANCH  38  39
ENDBRANCH  31  38
BRANCH  27  43
ATOM     43  C   UNK d   0     -22.212 -20.630  22.538  0.00  0.00     0.052 C 
BRANCH  43  44
ATOM     44  C   UNK d   0     -23.535 -20.097  22.983  0.00  0.00     0.115 C 
BRANCH  44  45
ATOM     45  C   UNK d   0     -24.523 -20.494  21.947  0.00  0.00     0.139 C 
ATOM     46  O   UNK d   0     -24.366 -20.055  20.781  0.00  0.00    -0.650 OA
BRANCH  45  47
ATOM     47  O   UNK d   0     -25.592 -21.322  22.212  0.00  0.00    -0.776 OA
ATOM     48  H   UNK d   0     -26.112 -21.298  23.104  0.00  0.00     0.167 HD
ENDBRANCH  45  47
ENDBRANCH  44  45
ENDBRANCH  43  44
ENDBRANCH  27  43
BRANCH  24  49
ATOM     49  C   UNK d   0     -25.054 -25.026  20.735  0.00  0.00     0.052 C 
BRANCH  49  50
ATOM     50  C   UNK d   0     -26.268 -25.466  21.513  0.00  0.00     0.115 C 
BRANCH  50  51
ATOM     51  C   UNK d   0     -26.473 -24.863  22.823  0.00  0.00     0.139 C 
ATOM     52  O   UNK d   0     -26.989 -23.731  22.973  0.00  0.00    -0.650 OA
BRANCH  51  53
ATOM     53  O   UNK d   0     -26.087 -25.552  23.963  0.00  0.00    -0.776 OA
ATOM     54  H   UNK d   0     -25.786 -25.020  24.760  0.00  0.00     0.167 HD
ENDBRANCH  51  53
ENDBRANCH  50  51
ENDBRANCH  49  50
ENDBRANCH  24  49
BRANCH  21  55
ATOM     55  C   UNK d   0     -23.783 -27.801  20.250  0.00  0.00     0.151 C 
BRANCH  55  56
ATOM     56  C   UNK d   0     -23.068 -27.827  18.965  0.00  0.00     0.143 C 
ATOM     57  O   UNK d   0     -22.383 -28.800  18.594  0.00  0.00    -0.650 OA
BRANCH  56  58
ATOM     58  O   UNK d   0     -23.174 -26.708  18.141  0.00  0.00    -0.776 OA
ATOM     59  H   UNK d   0     -22.604 -26.748  17.276  0.00  0.00     0.167 HD
ENDBRANCH  56  58
ENDBRANCH  55  56
ENDBRANCH  21  55
BRANCH  18  60
ATOM     60  C   UNK d   0     -20.507 -30.307  23.684  0.00  0.00     0.151 C 
BRANCH  60  61
ATOM     61  C   UNK d   0     -21.575 -30.319  24.695  0.00  0.00     0.143 C 
ATOM     62  O   UNK d   0     -21.641 -31.033  25.696  0.00  0.00    -0.650 OA
BRANCH  61  63
ATOM     63  O   UNK d   0     -22.629 -29.401  24.469  0.00  0.00    -0.776 OA
ATOM     64  H   UNK d   0     -23.499 -29.479  24.964  0.00  0.00     0.167 HD
ENDBRANCH  61  63
ENDBRANCH  60  61
ENDBRANCH  18  60
BRANCH  14  65
ATOM     65  C   UNK d   0     -18.165 -29.741  25.530  0.00  0.00     0.052 C 
BRANCH  65  66
ATOM     66  C   UNK d   0     -17.388 -30.733  24.740  0.00  0.00     0.115 C 
BRANCH  66  67
ATOM     67  C   UNK d   0     -16.407 -31.553  25.395  0.00  0.00     0.139 C 
ATOM     68  O   UNK d   0     -15.326 -31.840  24.762  0.00  0.00    -0.650 OA
BRANCH  67  69
ATOM     69  O   UNK d   0     -16.472 -32.103  26.675  0.00  0.00    -0.776 OA
ATOM     70  H   UNK d   0     -16.978 -32.997  26.754  0.00  0.00     0.167 HD
ENDBRANCH  67  69
ENDBRANCH  66  67
ENDBRANCH  65  66
ENDBRANCH  14  65
ENDBRANCH   6   7
ENDBRANCH   5   6
ENDBRANCH   2   5
TORSDOF 28
ENDMDL
MODEL 11
REMARK VINA RESULT:      -8.9      4.281     11.883
REMARK  28 active torsions:
REMARK  status: ('A' for Active; 'I' for Inactive)
REMARK    1  A    between atoms: C_2  and  O_3 
REMARK    2  A    between atoms: C_2  and  C_4 
REMARK    3  A    between atoms: C_4  and  C_5 
REMARK    4  A    between atoms: C_5  and  C_6 
REMARK    5  A    between atoms: C_7  and  C_8 
REMARK    6  A    between atoms: C_8  and  C_9 
REMARK    7  A    between atoms: C_9  and  O_11 
REMARK    8  A    between atoms: C_28  and  C_29 
REMARK    9  A    between atoms: C_29  and  C_30 
REMARK   10  A    between atoms: C_30  and  O_32 
REMARK   11  A    between atoms: C_33  and  C_34 
REMARK   12  A    between atoms: C_34  and  C_35 
REMARK   13  A    between atoms: C_35  and  C_36 
REMARK   14  A    between atoms: C_36  and  O_38 
REMARK   15  A    between atoms: C_39  and  C_40 
REMARK   16  A    between atoms: C_40  and  C_41 
REMARK   17  A    between atoms: C_41  and  C_42 
REMARK   18  A    between atoms: C_42  and  O_44 
REMARK   19  A    between atoms: C_45  and  C_46 
REMARK   20  A    between atoms: C_46  and  C_47 
REMARK   21  A    between atoms: C_47  and  O_49 
REMARK   22  A    between atoms: C_50  and  C_51 
REMARK   23  A    between atoms: C_51  and  C_52 
REMARK   24  A    between atoms: C_52  and  O_54 
REMARK   25  A    between atoms: C_55  and  C_56 
REMARK   26  A    between atoms: C_56  and  C_57 
REMARK   27  A    between atoms: C_57  and  C_58 
REMARK   28  A    between atoms: C_58  and  O_60 
ROOT
ATOM      1  O   UNK d   0     -20.153 -32.876  15.637  0.00  0.00    -0.650 OA
ATOM      2  C   UNK d   0     -19.916 -31.718  16.047  0.00  0.00     0.139 C 
ENDROOT
BRANCH   2   3
ATOM      3  O   UNK d   0     -18.920 -30.983  15.451  0.00  0.00    -0.776 OA
ATOM      4  H   UNK d   0     -18.183 -30.544  16.007  0.00  0.00     0.167 HD
ENDBRANCH   2   3
BRANCH   2   5
ATOM      5  C   UNK d   0     -20.708 -31.146  17.173  0.00  0.00     0.115 C 
BRANCH   5   6
ATOM      6  C   UNK d   0     -22.059 -30.702  16.682  0.00  0.00     0.052 C 
BRANCH   6   7
ATOM      7  C   UNK d   0     -22.235 -29.203  16.744  0.00  0.00    -0.020 A 
ATOM      8  C   UNK d   0     -22.252 -28.360  15.744  0.00  0.00    -0.011 A 
ATOM      9  C   UNK d   0     -22.439 -27.026  16.290  0.00  0.00     0.067 A 
ATOM     10  C   UNK d   0     -22.563 -25.727  15.771  0.00  0.00     0.062 C 
ATOM     11  N   UNK d   0     -22.520 -27.150  17.631  0.00  0.00    -0.248 NA
ATOM     12  C   UNK d   0     -23.019 -24.587  16.441  0.00  0.00     0.041 A 
ATOM     13  N   UNK d   0     -22.766 -24.127  17.681  0.00  0.00    -0.355 N 
ATOM     14  C   UNK d   0     -23.949 -23.748  15.801  0.00  0.00    -0.022 A 
ATOM     15  C   UNK d   0     -23.517 -23.022  17.847  0.00  0.00     0.042 A 
ATOM     16  H   UNK d   0     -22.056 -24.564  18.418  0.00  0.00     0.166 HD
ATOM     17  C   UNK d   0     -23.634 -22.154  18.951  0.00  0.00     0.062 C 
ATOM     18  C   UNK d   0     -24.273 -22.753  16.689  0.00  0.00    -0.013 A 
ATOM     19  C   UNK d   0     -23.764 -22.464  20.281  0.00  0.00     0.067 A 
ATOM     20  N   UNK d   0     -23.559 -23.737  20.629  0.00  0.00    -0.248 NA
ATOM     21  C   UNK d   0     -24.099 -21.737  21.495  0.00  0.00    -0.011 A 
ATOM     22  C   UNK d   0     -23.737 -23.896  21.981  0.00  0.00     0.066 A 
ATOM     23  C   UNK d   0     -23.518 -25.169  22.486  0.00  0.00     0.062 C 
ATOM     24  C   UNK d   0     -24.085 -22.582  22.485  0.00  0.00    -0.020 A 
ATOM     25  C   UNK d   0     -23.047 -26.298  21.798  0.00  0.00     0.041 A 
ATOM     26  N   UNK d   0     -23.310 -26.764  20.571  0.00  0.00    -0.355 N 
ATOM     27  C   UNK d   0     -22.110 -27.138  22.440  0.00  0.00    -0.022 A 
ATOM     28  C   UNK d   0     -22.569 -27.871  20.406  0.00  0.00     0.042 A 
ATOM     29  H   UNK d   0     -24.032 -26.330  19.836  0.00  0.00     0.166 HD
ATOM     30  C   UNK d   0     -22.449 -28.748  19.317  0.00  0.00     0.062 C 
ATOM     31  C   UNK d   0     -21.802 -28.135  21.566  0.00  0.00    -0.013 A 
ATOM     32  C   UNK d   0     -22.405 -28.435  17.968  0.00  0.00     0.066 A 
BRANCH   8  33
ATOM     33  C   UNK d   0     -22.105 -28.681  14.312  0.00  0.00     0.151 C 
BRANCH  33  34
ATOM     34  C   UNK d   0     -20.782 -28.311  13.777  0.00  0.00     0.143 C 
ATOM     35  O   UNK d   0     -20.647 -27.971  12.593  0.00  0.00    -0.650 OA
BRANCH  34  36
ATOM     36  O   UNK d   0     -19.685 -28.345  14.606  0.00  0.00    -0.776 OA
ATOM     37  H   UNK d   0     -19.450 -27.549  15.215  0.00  0.00     0.167 HD
ENDBRANCH  34  36
ENDBRANCH  33  34
ENDBRANCH   8  33
BRANCH  31  38
ATOM     38  C   UNK d   0     -20.828 -29.264  21.810  0.00  0.00     0.151 C 
BRANCH  38  39
ATOM     39  C   UNK d   0     -19.557 -29.062  21.148  0.00  0.00     0.143 C 
ATOM     40  O   UNK d   0     -19.250 -29.657  20.100  0.00  0.00    -0.650 OA
BRANCH  39  41
ATOM     41  O   UNK d   0     -18.633 -28.171  21.694  0.00  0.00    -0.776 OA
ATOM     42  H   UNK d   0     -18.993 -27.259  21.993  0.00  0.00     0.167 HD
ENDBRANCH  39  41
ENDBRANCH  38  39
ENDBRANCH  31  38
BRANCH  27  43
ATOM     43  C   UNK d   0     -21.515 -27.029  23.821  0.00  0.00     0.052 C 
BRANCH  43  44
ATOM     44  C   UNK d   0     -20.341 -26.106  23.888  0.00  0.00     0.115 C 
BRANCH  44  45
ATOM     45  C   UNK d   0     -19.336 -26.761  24.764  0.00  0.00     0.139 C 
ATOM     46  O   UNK d   0     -19.080 -27.975  24.567  0.00  0.00    -0.650 OA
BRANCH  45  47
ATOM     47  O   UNK d   0     -18.674 -26.093  25.772  0.00  0.00    -0.776 OA
ATOM     48  H   UNK d   0     -17.824 -26.464  26.226  0.00  0.00     0.167 HD
ENDBRANCH  45  47
ENDBRANCH  44  45
ENDBRANCH  43  44
ENDBRANCH  27  43
BRANCH  24  49
ATOM     49  C   UNK d   0     -24.331 -22.263  23.902  0.00  0.00     0.052 C 
BRANCH  49  50
ATOM     50  C   UNK d   0     -25.560 -22.983  24.396  0.00  0.00     0.115 C 
BRANCH  50  51
ATOM     51  C   UNK d   0     -26.736 -22.958  23.536  0.00  0.00     0.139 C 
ATOM     52  O   UNK d   0     -27.086 -23.940  22.841  0.00  0.00    -0.650 OA
BRANCH  51  53
ATOM     53  O   UNK d   0     -27.511 -21.810  23.467  0.00  0.00    -0.776 OA
ATOM     54  H   UNK d   0     -28.490 -21.884  23.683  0.00  0.00     0.167 HD
ENDBRANCH  51  53
ENDBRANCH  50  51
ENDBRANCH  49  50
ENDBRANCH  24  49
BRANCH  21  55
ATOM     55  C   UNK d   0     -24.392 -20.275  21.539  0.00  0.00     0.151 C 
BRANCH  55  56
ATOM     56  C   UNK d   0     -25.760 -19.973  21.088  0.00  0.00     0.143 C 
ATOM     57  O   UNK d   0     -26.103 -20.026  19.891  0.00  0.00    -0.650 OA
BRANCH  56  58
ATOM     58  O   UNK d   0     -26.698 -19.615  22.055  0.00  0.00    -0.776 OA
ATOM     59  H   UNK d   0     -27.495 -19.055  21.703  0.00  0.00     0.167 HD
ENDBRANCH  56  58
ENDBRANCH  55  56
ENDBRANCH  21  55
BRANCH  18  60
ATOM     60  C   UNK d   0     -25.248 -21.634  16.417  0.00  0.00     0.151 C 
BRANCH  60  61
ATOM     61  C   UNK d   0     -24.474 -20.577  15.749  0.00  0.00     0.143 C 
ATOM     62  O   UNK d   0     -23.535 -19.935  16.221  0.00  0.00    -0.650 OA
BRANCH  61  63
ATOM     63  O   UNK d   0     -24.871 -20.287  14.422  0.00  0.00    -0.776 OA
ATOM     64  H   UNK d   0     -25.713 -20.675  14.036  0.00  0.00     0.167 HD
ENDBRANCH  61  63
ENDBRANCH  60  61
ENDBRANCH  18  60
BRANCH  14  65
ATOM     65  C   UNK d   0     -24.474 -23.759  14.393  0.00  0.00     0.052 C 
BRANCH  65  66
ATOM     66  C   UNK d   0     -25.751 -24.510  14.255  0.00  0.00     0.115 C 
BRANCH  66  67
ATOM     67  C   UNK d   0     -26.984 -23.793  14.093  0.00  0.00     0.139 C 
ATOM     68  O   UNK d   0     -26.953 -22.638  13.529  0.00  0.00    -0.650 OA
BRANCH  67  69
ATOM     69  O   UNK d   0     -28.262 -24.195  14.480  0.00  0.00    -0.776 OA
ATOM     70  H   UNK d   0     -28.775 -24.774  13.799  0.00  0.00     0.167 HD
ENDBRANCH  67  69
ENDBRANCH  66  67
ENDBRANCH  65  66
ENDBRANCH  14  65
ENDBRANCH   6   7
ENDBRANCH   5   6
ENDBRANCH   2   5
TORSDOF 28
ENDMDL
MODEL 12
REMARK VINA RESULT:      -8.8      1.835      8.255
REMARK  28 active torsions:
REMARK  status: ('A' for Active; 'I' for Inactive)
REMARK    1  A    between atoms: C_2  and  O_3 
REMARK    2  A    between atoms: C_2  and  C_4 
REMARK    3  A    between atoms: C_4  and  C_5 
REMARK    4  A    between atoms: C_5  and  C_6 
REMARK    5  A    between atoms: C_7  and  C_8 
REMARK    6  A    between atoms: C_8  and  C_9 
REMARK    7  A    between atoms: C_9  and  O_11 
REMARK    8  A    between atoms: C_28  and  C_29 
REMARK    9  A    between atoms: C_29  and  C_30 
REMARK   10  A    between atoms: C_30  and  O_32 
REMARK   11  A    between atoms: C_33  and  C_34 
REMARK   12  A    between atoms: C_34  and  C_35 
REMARK   13  A    between atoms: C_35  and  C_36 
REMARK   14  A    between atoms: C_36  and  O_38 
REMARK   15  A    between atoms: C_39  and  C_40 
REMARK   16  A    between atoms: C_40  and  C_41 
REMARK   17  A    between atoms: C_41  and  C_42 
REMARK   18  A    between atoms: C_42  and  O_44 
REMARK   19  A    between atoms: C_45  and  C_46 
REMARK   20  A    between atoms: C_46  and  C_47 
REMARK   21  A    between atoms: C_47  and  O_49 
REMARK   22  A    between atoms: C_50  and  C_51 
REMARK   23  A    between atoms: C_51  and  C_52 
REMARK   24  A    between atoms: C_52  and  O_54 
REMARK   25  A    between atoms: C_55  and  C_56 
REMARK   26  A    between atoms: C_56  and  C_57 
REMARK   27  A    between atoms: C_57  and  C_58 
REMARK   28  A    between atoms: C_58  and  O_60 
ROOT
ATOM      1  O   UNK d   0     -22.362 -22.649  17.067  0.00  0.00    -0.650 OA
ATOM      2  C   UNK d   0     -23.398 -23.059  17.635  0.00  0.00     0.139 C 
ENDROOT
BRANCH   2   3
ATOM      3  O   UNK d   0     -24.441 -22.189  17.843  0.00  0.00    -0.776 OA
ATOM      4  H   UNK d   0     -24.654 -21.835  18.778  0.00  0.00     0.167 HD
ENDBRANCH   2   3
BRANCH   2   5
ATOM      5  C   UNK d   0     -23.495 -24.478  18.080  0.00  0.00     0.115 C 
BRANCH   5   6
ATOM      6  C   UNK d   0     -24.335 -24.574  19.325  0.00  0.00     0.052 C 
BRANCH   6   7
ATOM      7  C   UNK d   0     -23.509 -24.538  20.588  0.00  0.00    -0.020 A 
ATOM      8  C   UNK d   0     -22.961 -25.550  21.212  0.00  0.00    -0.011 A 
ATOM      9  C   UNK d   0     -22.272 -25.030  22.382  0.00  0.00     0.067 A 
ATOM     10  C   UNK d   0     -21.496 -25.567  23.421  0.00  0.00     0.062 C 
ATOM     11  N   UNK d   0     -22.457 -23.694  22.395  0.00  0.00    -0.248 NA
ATOM     12  C   UNK d   0     -20.677 -24.868  24.315  0.00  0.00     0.041 A 
ATOM     13  N   UNK d   0     -20.874 -23.716  24.983  0.00  0.00    -0.355 N 
ATOM     14  C   UNK d   0     -19.384 -25.356  24.576  0.00  0.00    -0.022 A 
ATOM     15  C   UNK d   0     -19.737 -23.456  25.655  0.00  0.00     0.042 A 
ATOM     16  H   UNK d   0     -21.806 -23.108  24.994  0.00  0.00     0.166 HD
ATOM     17  C   UNK d   0     -19.404 -22.384  26.507  0.00  0.00     0.062 C 
ATOM     18  C   UNK d   0     -18.779 -24.462  25.424  0.00  0.00    -0.013 A 
ATOM     19  C   UNK d   0     -19.629 -21.042  26.333  0.00  0.00     0.067 A 
ATOM     20  N   UNK d   0     -20.439 -20.690  25.331  0.00  0.00    -0.248 NA
ATOM     21  C   UNK d   0     -19.185 -19.817  26.975  0.00  0.00    -0.011 A 
ATOM     22  C   UNK d   0     -20.556 -19.323  25.271  0.00  0.00     0.066 A 
ATOM     23  C   UNK d   0     -21.402 -18.819  24.295  0.00  0.00     0.062 C 
ATOM     24  C   UNK d   0     -19.728 -18.814  26.347  0.00  0.00    -0.020 A 
ATOM     25  C   UNK d   0     -22.227 -19.538  23.416  0.00  0.00     0.041 A 
ATOM     26  N   UNK d   0     -22.025 -20.675  22.740  0.00  0.00    -0.355 N 
ATOM     27  C   UNK d   0     -23.526 -19.050  23.157  0.00  0.00    -0.022 A 
ATOM     28  C   UNK d   0     -23.155 -20.932  22.062  0.00  0.00     0.042 A 
ATOM     29  H   UNK d   0     -21.084 -21.279  22.721  0.00  0.00     0.166 HD
ATOM     30  C   UNK d   0     -23.496 -21.989  21.204  0.00  0.00     0.062 C 
ATOM     31  C   UNK d   0     -24.120 -19.926  22.302  0.00  0.00    -0.013 A 
ATOM     32  C   UNK d   0     -23.192 -23.334  21.342  0.00  0.00     0.066 A 
BRANCH   8  33
ATOM     33  C   UNK d   0     -23.024 -26.970  20.821  0.00  0.00     0.151 C 
BRANCH  33  34
ATOM     34  C   UNK d   0     -22.849 -27.885  21.964  0.00  0.00     0.143 C 
ATOM     35  O   UNK d   0     -23.746 -28.028  22.807  0.00  0.00    -0.650 OA
BRANCH  34  36
ATOM     36  O   UNK d   0     -21.673 -28.586  22.094  0.00  0.00    -0.776 OA
ATOM     37  H   UNK d   0     -21.262 -29.092  21.297  0.00  0.00     0.167 HD
ENDBRANCH  34  36
ENDBRANCH  33  34
ENDBRANCH   8  33
BRANCH  31  38
ATOM     38  C   UNK d   0     -25.525 -19.824  21.755  0.00  0.00     0.151 C 
BRANCH  38  39
ATOM     39  C   UNK d   0     -25.592 -19.083  20.513  0.00  0.00     0.143 C 
ATOM     40  O   UNK d   0     -25.303 -19.595  19.417  0.00  0.00    -0.650 OA
BRANCH  39  41
ATOM     41  O   UNK d   0     -25.993 -17.748  20.532  0.00  0.00    -0.776 OA
ATOM     42  H   UNK d   0     -25.741 -17.179  19.718  0.00  0.00     0.167 HD
ENDBRANCH  39  41
ENDBRANCH  38  39
ENDBRANCH  31  38
BRANCH  27  43
ATOM     43  C   UNK d   0     -24.205 -17.809  23.680  0.00  0.00     0.052 C 
BRANCH  43  44
ATOM     44  C   UNK d   0     -23.630 -16.544  23.130  0.00  0.00     0.115 C 
BRANCH  44  45
ATOM     45  C   UNK d   0     -23.511 -15.600  24.272  0.00  0.00     0.139 C 
ATOM     46  O   UNK d   0     -24.117 -15.879  25.336  0.00  0.00    -0.650 OA
BRANCH  45  47
ATOM     47  O   UNK d   0     -22.764 -14.444  24.211  0.00  0.00    -0.776 OA
ATOM     48  H   UNK d   0     -23.171 -13.506  24.355  0.00  0.00     0.167 HD
ENDBRANCH  45  47
ENDBRANCH  44  45
ENDBRANCH  43  44
ENDBRANCH  27  43
BRANCH  24  49
ATOM     49  C   UNK d   0     -19.577 -17.390  26.691  0.00  0.00     0.052 C 
BRANCH  49  50
ATOM     50  C   UNK d   0     -18.123 -16.993  26.660  0.00  0.00     0.115 C 
BRANCH  50  51
ATOM     51  C   UNK d   0     -17.611 -16.258  27.808  0.00  0.00     0.139 C 
ATOM     52  O   UNK d   0     -18.246 -15.323  28.351  0.00  0.00    -0.650 OA
BRANCH  51  53
ATOM     53  O   UNK d   0     -16.371 -16.587  28.336  0.00  0.00    -0.776 OA
ATOM     54  H   UNK d   0     -15.552 -16.203  27.899  0.00  0.00     0.167 HD
ENDBRANCH  51  53
ENDBRANCH  50  51
ENDBRANCH  49  50
ENDBRANCH  24  49
BRANCH  21  55
ATOM     55  C   UNK d   0     -18.269 -19.776  28.153  0.00  0.00     0.151 C 
BRANCH  55  56
ATOM     56  C   UNK d   0     -18.229 -21.062  28.866  0.00  0.00     0.143 C 
ATOM     57  O   UNK d   0     -19.161 -21.461  29.591  0.00  0.00    -0.650 OA
BRANCH  56  58
ATOM     58  O   UNK d   0     -17.093 -21.855  28.711  0.00  0.00    -0.776 OA
ATOM     59  H   UNK d   0     -17.219 -22.852  28.963  0.00  0.00     0.167 HD
ENDBRANCH  56  58
ENDBRANCH  55  56
ENDBRANCH  21  55
BRANCH  18  60
ATOM     60  C   UNK d   0     -17.374 -24.592  25.958  0.00  0.00     0.151 C 
BRANCH  60  61
ATOM     61  C   UNK d   0     -17.499 -25.237  27.274  0.00  0.00     0.143 C 
ATOM     62  O   UNK d   0     -17.694 -24.684  28.356  0.00  0.00    -0.650 OA
BRANCH  61  63
ATOM     63  O   UNK d   0     -17.379 -26.648  27.266  0.00  0.00    -0.776 OA
ATOM     64  H   UNK d   0     -17.330 -27.168  28.124  0.00  0.00     0.167 HD
ENDBRANCH  61  63
ENDBRANCH  60  61
ENDBRANCH  18  60
BRANCH  14  65
ATOM     65  C   UNK d   0     -18.718 -26.640  24.168  0.00  0.00     0.052 C 
BRANCH  65  66
ATOM     66  C   UNK d   0     -18.423 -26.704  22.711  0.00  0.00     0.115 C 
BRANCH  66  67
ATOM     67  C   UNK d   0     -17.059 -26.712  22.261  0.00  0.00     0.139 C 
ATOM     68  O   UNK d   0     -16.738 -27.488  21.288  0.00  0.00    -0.650 OA
BRANCH  67  69
ATOM     69  O   UNK d   0     -15.993 -25.962  22.757  0.00  0.00    -0.776 OA
ATOM     70  H   UNK d   0     -15.142 -26.493  22.990  0.00  0.00     0.167 HD
ENDBRANCH  67  69
ENDBRANCH  66  67
ENDBRANCH  65  66
ENDBRANCH  14  65
ENDBRANCH   6   7
ENDBRANCH   5   6
ENDBRANCH   2   5
TORSDOF 28
ENDMDL
MODEL 13
REMARK VINA RESULT:      -8.8      1.772      2.471
REMARK  28 active torsions:
REMARK  status: ('A' for Active; 'I' for Inactive)
REMARK    1  A    between atoms: C_2  and  O_3 
REMARK    2  A    between atoms: C_2  and  C_4 
REMARK    3  A    between atoms: C_4  and  C_5 
REMARK    4  A    between atoms: C_5  and  C_6 
REMARK    5  A    between atoms: C_7  and  C_8 
REMARK    6  A    between atoms: C_8  and  C_9 
REMARK    7  A    between atoms: C_9  and  O_11 
REMARK    8  A    between atoms: C_28  and  C_29 
REMARK    9  A    between atoms: C_29  and  C_30 
REMARK   10  A    between atoms: C_30  and  O_32 
REMARK   11  A    between atoms: C_33  and  C_34 
REMARK   12  A    between atoms: C_34  and  C_35 
REMARK   13  A    between atoms: C_35  and  C_36 
REMARK   14  A    between atoms: C_36  and  O_38 
REMARK   15  A    between atoms: C_39  and  C_40 
REMARK   16  A    between atoms: C_40  and  C_41 
REMARK   17  A    between atoms: C_41  and  C_42 
REMARK   18  A    between atoms: C_42  and  O_44 
REMARK   19  A    between atoms: C_45  and  C_46 
REMARK   20  A    between atoms: C_46  and  C_47 
REMARK   21  A    between atoms: C_47  and  O_49 
REMARK   22  A    between atoms: C_50  and  C_51 
REMARK   23  A    between atoms: C_51  and  C_52 
REMARK   24  A    between atoms: C_52  and  O_54 
REMARK   25  A    between atoms: C_55  and  C_56 
REMARK   26  A    between atoms: C_56  and  C_57 
REMARK   27  A    between atoms: C_57  and  C_58 
REMARK   28  A    between atoms: C_58  and  O_60 
ROOT
ATOM      1  O   UNK d   0     -26.312 -19.001  19.475  0.00  0.00    -0.650 OA
ATOM      2  C   UNK d   0     -26.214 -17.802  19.819  0.00  0.00     0.139 C 
ENDROOT
BRANCH   2   3
ATOM      3  O   UNK d   0     -27.252 -16.940  19.560  0.00  0.00    -0.776 OA
ATOM      4  H   UNK d   0     -28.213 -17.179  19.815  0.00  0.00     0.167 HD
ENDBRANCH   2   3
BRANCH   2   5
ATOM      5  C   UNK d   0     -24.981 -17.318  20.501  0.00  0.00     0.115 C 
BRANCH   5   6
ATOM      6  C   UNK d   0     -25.092 -17.534  21.986  0.00  0.00     0.052 C 
BRANCH   6   7
ATOM      7  C   UNK d   0     -23.925 -18.310  22.549  0.00  0.00    -0.020 A 
ATOM      8  C   UNK d   0     -22.933 -17.850  23.268  0.00  0.00    -0.011 A 
ATOM      9  C   UNK d   0     -22.049 -18.964  23.571  0.00  0.00     0.067 A 
ATOM     10  C   UNK d   0     -20.861 -19.145  24.295  0.00  0.00     0.062 C 
ATOM     11  N   UNK d   0     -22.576 -20.062  22.991  0.00  0.00    -0.248 NA
ATOM     12  C   UNK d   0     -20.298 -20.357  24.710  0.00  0.00     0.041 A 
ATOM     13  N   UNK d   0     -20.152 -21.532  24.069  0.00  0.00    -0.355 N 
ATOM     14  C   UNK d   0     -19.827 -20.471  26.031  0.00  0.00    -0.022 A 
ATOM     15  C   UNK d   0     -19.607 -22.391  24.951  0.00  0.00     0.042 A 
ATOM     16  H   UNK d   0     -20.410 -21.744  23.008  0.00  0.00     0.166 HD
ATOM     17  C   UNK d   0     -19.246 -23.745  24.803  0.00  0.00     0.062 C 
ATOM     18  C   UNK d   0     -19.389 -21.762  26.193  0.00  0.00    -0.013 A 
ATOM     19  C   UNK d   0     -19.948 -24.766  24.215  0.00  0.00     0.067 A 
ATOM     20  N   UNK d   0     -21.029 -24.427  23.508  0.00  0.00    -0.248 NA
ATOM     21  C   UNK d   0     -19.836 -26.214  24.158  0.00  0.00    -0.011 A 
ATOM     22  C   UNK d   0     -21.633 -25.549  22.995  0.00  0.00     0.066 A 
ATOM     23  C   UNK d   0     -22.753 -25.338  22.204  0.00  0.00     0.062 C 
ATOM     24  C   UNK d   0     -20.827 -26.666  23.446  0.00  0.00    -0.020 A 
ATOM     25  C   UNK d   0     -23.295 -24.112  21.788  0.00  0.00     0.041 A 
ATOM     26  N   UNK d   0     -23.454 -22.949  22.430  0.00  0.00    -0.355 N 
ATOM     27  C   UNK d   0     -23.763 -23.997  20.461  0.00  0.00    -0.022 A 
ATOM     28  C   UNK d   0     -24.005 -22.093  21.555  0.00  0.00     0.042 A 
ATOM     29  H   UNK d   0     -23.204 -22.740  23.499  0.00  0.00     0.166 HD
ATOM     30  C   UNK d   0     -24.378 -20.746  21.692  0.00  0.00     0.062 C 
ATOM     31  C   UNK d   0     -24.214 -22.722  20.305  0.00  0.00    -0.013 A 
ATOM     32  C   UNK d   0     -23.706 -19.736  22.361  0.00  0.00     0.066 A 
BRANCH   8  33
ATOM     33  C   UNK d   0     -22.726 -16.456  23.702  0.00  0.00     0.151 C 
BRANCH  33  34
ATOM     34  C   UNK d   0     -23.343 -16.167  25.009  0.00  0.00     0.143 C 
ATOM     35  O   UNK d   0     -24.549 -15.899  25.098  0.00  0.00    -0.650 OA
BRANCH  34  36
ATOM     36  O   UNK d   0     -22.565 -16.195  26.143  0.00  0.00    -0.776 OA
ATOM     37  H   UNK d   0     -21.568 -16.446  26.101  0.00  0.00     0.167 HD
ENDBRANCH  34  36
ENDBRANCH  33  34
ENDBRANCH   8  33
BRANCH  31  38
ATOM     38  C   UNK d   0     -24.796 -22.131  19.042  0.00  0.00     0.151 C 
BRANCH  38  39
ATOM     39  C   UNK d   0     -23.824 -21.382  18.273  0.00  0.00     0.143 C 
ATOM     40  O   UNK d   0     -22.776 -21.896  17.845  0.00  0.00    -0.650 OA
BRANCH  39  41
ATOM     41  O   UNK d   0     -24.060 -20.037  17.994  0.00  0.00    -0.776 OA
ATOM     42  H   UNK d   0     -23.260 -19.401  18.076  0.00  0.00     0.167 HD
ENDBRANCH  39  41
ENDBRANCH  38  39
ENDBRANCH  31  38
BRANCH  27  43
ATOM     43  C   UNK d   0     -23.799 -25.031  19.364  0.00  0.00     0.052 C 
BRANCH  43  44
ATOM     44  C   UNK d   0     -24.176 -26.394  19.849  0.00  0.00     0.115 C 
BRANCH  44  45
ATOM     45  C   UNK d   0     -23.356 -27.361  19.075  0.00  0.00     0.139 C 
ATOM     46  O   UNK d   0     -22.757 -28.268  19.705  0.00  0.00    -0.650 OA
BRANCH  45  47
ATOM     47  O   UNK d   0     -23.232 -27.307  17.703  0.00  0.00    -0.776 OA
ATOM     48  H   UNK d   0     -23.526 -28.079  17.083  0.00  0.00     0.167 HD
ENDBRANCH  45  47
ENDBRANCH  44  45
ENDBRANCH  43  44
ENDBRANCH  27  43
BRANCH  24  49
ATOM     49  C   UNK d   0     -21.077 -28.076  23.102  0.00  0.00     0.052 C 
BRANCH  49  50
ATOM     50  C   UNK d   0     -22.556 -28.328  22.963  0.00  0.00     0.115 C 
BRANCH  50  51
ATOM     51  C   UNK d   0     -23.267 -28.789  24.148  0.00  0.00     0.139 C 
ATOM     52  O   UNK d   0     -22.820 -29.689  24.897  0.00  0.00    -0.650 OA
BRANCH  51  53
ATOM     53  O   UNK d   0     -24.491 -28.226  24.476  0.00  0.00    -0.776 OA
ATOM     54  H   UNK d   0     -24.928 -27.615  23.809  0.00  0.00     0.167 HD
ENDBRANCH  51  53
ENDBRANCH  50  51
ENDBRANCH  49  50
ENDBRANCH  24  49
BRANCH  21  55
ATOM     55  C   UNK d   0     -18.747 -26.994  24.818  0.00  0.00     0.151 C 
BRANCH  55  56
ATOM     56  C   UNK d   0     -17.814 -26.126  25.553  0.00  0.00     0.143 C 
ATOM     57  O   UNK d   0     -16.797 -25.631  25.028  0.00  0.00    -0.650 OA
BRANCH  56  58
ATOM     58  O   UNK d   0     -18.096 -25.856  26.891  0.00  0.00    -0.776 OA
ATOM     59  H   UNK d   0     -17.484 -26.341  27.572  0.00  0.00     0.167 HD
ENDBRANCH  56  58
ENDBRANCH  55  56
ENDBRANCH  21  55
BRANCH  18  60
ATOM     60  C   UNK d   0     -18.809 -22.325  27.466  0.00  0.00     0.151 C 
BRANCH  60  61
ATOM     61  C   UNK d   0     -19.835 -23.225  28.014  0.00  0.00     0.143 C 
ATOM     62  O   UNK d   0     -21.042 -23.210  27.771  0.00  0.00    -0.650 OA
BRANCH  61  63
ATOM     63  O   UNK d   0     -19.357 -24.206  28.917  0.00  0.00    -0.776 OA
ATOM     64  H   UNK d   0     -18.475 -24.093  29.385  0.00  0.00     0.167 HD
ENDBRANCH  61  63
ENDBRANCH  60  61
ENDBRANCH  18  60
BRANCH  14  65
ATOM     65  C   UNK d   0     -19.670 -19.437  27.109  0.00  0.00     0.052 C 
BRANCH  65  66
ATOM     66  C   UNK d   0     -18.489 -18.556  26.903  0.00  0.00     0.115 C 
BRANCH  66  67
ATOM     67  C   UNK d   0     -18.675 -17.141  26.749  0.00  0.00     0.139 C 
ATOM     68  O   UNK d   0     -19.875 -16.684  26.684  0.00  0.00    -0.650 OA
BRANCH  67  69
ATOM     69  O   UNK d   0     -17.692 -16.156  26.656  0.00  0.00    -0.776 OA
ATOM     70  H   UNK d   0     -17.695 -15.449  27.405  0.00  0.00     0.167 HD
ENDBRANCH  67  69
ENDBRANCH  66  67
ENDBRANCH  65  66
ENDBRANCH  14  65
ENDBRANCH   6   7
ENDBRANCH   5   6
ENDBRANCH   2   5
TORSDOF 28
ENDMDL
MODEL 14
REMARK VINA RESULT:      -8.7      4.087     12.136
REMARK  28 active torsions:
REMARK  status: ('A' for Active; 'I' for Inactive)
REMARK    1  A    between atoms: C_2  and  O_3 
REMARK    2  A    between atoms: C_2  and  C_4 
REMARK    3  A    between atoms: C_4  and  C_5 
REMARK    4  A    between atoms: C_5  and  C_6 
REMARK    5  A    between atoms: C_7  and  C_8 
REMARK    6  A    between atoms: C_8  and  C_9 
REMARK    7  A    between atoms: C_9  and  O_11 
REMARK    8  A    between atoms: C_28  and  C_29 
REMARK    9  A    between atoms: C_29  and  C_30 
REMARK   10  A    between atoms: C_30  and  O_32 
REMARK   11  A    between atoms: C_33  and  C_34 
REMARK   12  A    between atoms: C_34  and  C_35 
REMARK   13  A    between atoms: C_35  and  C_36 
REMARK   14  A    between atoms: C_36  and  O_38 
REMARK   15  A    between atoms: C_39  and  C_40 
REMARK   16  A    between atoms: C_40  and  C_41 
REMARK   17  A    between atoms: C_41  and  C_42 
REMARK   18  A    between atoms: C_42  and  O_44 
REMARK   19  A    between atoms: C_45  and  C_46 
REMARK   20  A    between atoms: C_46  and  C_47 
REMARK   21  A    between atoms: C_47  and  O_49 
REMARK   22  A    between atoms: C_50  and  C_51 
REMARK   23  A    between atoms: C_51  and  C_52 
REMARK   24  A    between atoms: C_52  and  O_54 
REMARK   25  A    between atoms: C_55  and  C_56 
REMARK   26  A    between atoms: C_56  and  C_57 
REMARK   27  A    between atoms: C_57  and  C_58 
REMARK   28  A    between atoms: C_58  and  O_60 
ROOT
ATOM      1  O   UNK d   0     -21.304 -33.152  17.060  0.00  0.00    -0.650 OA
ATOM      2  C   UNK d   0     -20.698 -32.113  16.715  0.00  0.00     0.139 C 
ENDROOT
BRANCH   2   3
ATOM      3  O   UNK d   0     -19.818 -32.165  15.661  0.00  0.00    -0.776 OA
ATOM      4  H   UNK d   0     -19.612 -31.333  15.104  0.00  0.00     0.167 HD
ENDBRANCH   2   3
BRANCH   2   5
ATOM      5  C   UNK d   0     -20.932 -30.834  17.443  0.00  0.00     0.115 C 
BRANCH   5   6
ATOM      6  C   UNK d   0     -22.388 -30.459  17.377  0.00  0.00     0.052 C 
BRANCH   6   7
ATOM      7  C   UNK d   0     -22.598 -28.971  17.228  0.00  0.00    -0.020 A 
ATOM      8  C   UNK d   0     -22.673 -28.283  16.118  0.00  0.00    -0.011 A 
ATOM      9  C   UNK d   0     -22.872 -26.887  16.472  0.00  0.00     0.067 A 
ATOM     10  C   UNK d   0     -23.047 -25.681  15.775  0.00  0.00     0.062 C 
ATOM     11  N   UNK d   0     -22.901 -26.816  17.819  0.00  0.00    -0.248 NA
ATOM     12  C   UNK d   0     -23.507 -24.464  16.291  0.00  0.00     0.041 A 
ATOM     13  N   UNK d   0     -23.220 -23.824  17.440  0.00  0.00    -0.355 N 
ATOM     14  C   UNK d   0     -24.479 -23.745  15.573  0.00  0.00    -0.022 A 
ATOM     15  C   UNK d   0     -23.991 -22.721  17.474  0.00  0.00     0.042 A 
ATOM     16  H   UNK d   0     -22.473 -24.135  18.203  0.00  0.00     0.166 HD
ATOM     17  C   UNK d   0     -24.089 -21.704  18.444  0.00  0.00     0.062 C 
ATOM     18  C   UNK d   0     -24.795 -22.638  16.320  0.00  0.00    -0.013 A 
ATOM     19  C   UNK d   0     -24.162 -21.818  19.809  0.00  0.00     0.067 A 
ATOM     20  N   UNK d   0     -23.914 -23.023  20.329  0.00  0.00    -0.248 NA
ATOM     21  C   UNK d   0     -24.470 -20.929  20.917  0.00  0.00    -0.011 A 
ATOM     22  C   UNK d   0     -24.038 -22.986  21.696  0.00  0.00     0.066 A 
ATOM     23  C   UNK d   0     -23.769 -24.168  22.371  0.00  0.00     0.062 C 
ATOM     24  C   UNK d   0     -24.400 -21.620  22.018  0.00  0.00    -0.020 A 
ATOM     25  C   UNK d   0     -23.296 -25.376  21.836  0.00  0.00     0.041 A 
ATOM     26  N   UNK d   0     -23.592 -26.021  20.701  0.00  0.00    -0.355 N 
ATOM     27  C   UNK d   0     -22.317 -26.095  22.555  0.00  0.00    -0.022 A 
ATOM     28  C   UNK d   0     -22.831 -27.125  20.669  0.00  0.00     0.042 A 
ATOM     29  H   UNK d   0     -24.351 -25.712  19.940  0.00  0.00     0.166 HD
ATOM     30  C   UNK d   0     -22.730 -28.150  19.715  0.00  0.00     0.062 C 
ATOM     31  C   UNK d   0     -22.016 -27.203  21.824  0.00  0.00    -0.013 A 
ATOM     32  C   UNK d   0     -22.742 -28.036  18.334  0.00  0.00     0.066 A 
BRANCH   8  33
ATOM     33  C   UNK d   0     -22.570 -28.807  14.743  0.00  0.00     0.151 C 
BRANCH  33  34
ATOM     34  C   UNK d   0     -21.197 -28.745  14.210  0.00  0.00     0.143 C 
ATOM     35  O   UNK d   0     -20.671 -27.657  13.933  0.00  0.00    -0.650 OA
BRANCH  34  36
ATOM     36  O   UNK d   0     -20.494 -29.911  14.016  0.00  0.00    -0.776 OA
ATOM     37  H   UNK d   0     -20.654 -30.736  14.611  0.00  0.00     0.167 HD
ENDBRANCH  34  36
ENDBRANCH  33  34
ENDBRANCH   8  33
BRANCH  31  38
ATOM     38  C   UNK d   0     -21.006 -28.266  22.190  0.00  0.00     0.151 C 
BRANCH  38  39
ATOM     39  C   UNK d   0     -21.260 -28.858  23.486  0.00  0.00     0.143 C 
ATOM     40  O   UNK d   0     -22.384 -29.271  23.821  0.00  0.00    -0.650 OA
BRANCH  39  41
ATOM     41  O   UNK d   0     -20.215 -28.976  24.402  0.00  0.00    -0.776 OA
ATOM     42  H   UNK d   0     -20.155 -29.857  24.922  0.00  0.00     0.167 HD
ENDBRANCH  39  41
ENDBRANCH  38  39
ENDBRANCH  31  38
BRANCH  27  43
ATOM     43  C   UNK d   0     -21.674 -25.775  23.881  0.00  0.00     0.052 C 
BRANCH  43  44
ATOM     44  C   UNK d   0     -20.445 -24.934  23.755  0.00  0.00     0.115 C 
BRANCH  44  45
ATOM     45  C   UNK d   0     -20.534 -23.891  24.810  0.00  0.00     0.139 C 
ATOM     46  O   UNK d   0     -21.588 -23.211  24.882  0.00  0.00    -0.650 OA
BRANCH  45  47
ATOM     47  O   UNK d   0     -19.517 -23.647  25.707  0.00  0.00    -0.776 OA
ATOM     48  H   UNK d   0     -19.687 -23.301  26.665  0.00  0.00     0.167 HD
ENDBRANCH  45  47
ENDBRANCH  44  45
ENDBRANCH  43  44
ENDBRANCH  27  43
BRANCH  24  49
ATOM     49  C   UNK d   0     -24.602 -21.103  23.382  0.00  0.00     0.052 C 
BRANCH  49  50
ATOM     50  C   UNK d   0     -25.497 -22.027  24.167  0.00  0.00     0.115 C 
BRANCH  50  51
ATOM     51  C   UNK d   0     -26.822 -22.291  23.621  0.00  0.00     0.139 C 
ATOM     52  O   UNK d   0     -27.210 -23.443  23.314  0.00  0.00    -0.650 OA
BRANCH  51  53
ATOM     53  O   UNK d   0     -27.705 -21.240  23.424  0.00  0.00    -0.776 OA
ATOM     54  H   UNK d   0     -28.189 -21.185  22.546  0.00  0.00     0.167 HD
ENDBRANCH  51  53
ENDBRANCH  50  51
ENDBRANCH  49  50
ENDBRANCH  24  49
BRANCH  21  55
ATOM     55  C   UNK d   0     -24.798 -19.481  20.759  0.00  0.00     0.151 C 
BRANCH  55  56
ATOM     56  C   UNK d   0     -26.240 -19.260  20.569  0.00  0.00     0.143 C 
ATOM     57  O   UNK d   0     -27.047 -19.213  21.518  0.00  0.00    -0.650 OA
BRANCH  56  58
ATOM     58  O   UNK d   0     -26.705 -19.097  19.265  0.00  0.00    -0.776 OA
ATOM     59  H   UNK d   0     -25.982 -19.195  18.529  0.00  0.00     0.167 HD
ENDBRANCH  56  58
ENDBRANCH  55  56
ENDBRANCH  21  55
BRANCH  18  60
ATOM     60  C   UNK d   0     -25.807 -21.590  15.927  0.00  0.00     0.151 C 
BRANCH  60  61
ATOM     61  C   UNK d   0     -25.161 -20.775  14.887  0.00  0.00     0.143 C 
ATOM     62  O   UNK d   0     -24.030 -20.290  14.920  0.00  0.00    -0.650 OA
BRANCH  61  63
ATOM     63  O   UNK d   0     -25.946 -20.538  13.733  0.00  0.00    -0.776 OA
ATOM     64  H   UNK d   0     -26.079 -19.608  13.378  0.00  0.00     0.167 HD
ENDBRANCH  61  63
ENDBRANCH  60  61
ENDBRANCH  18  60
BRANCH  14  65
ATOM     65  C   UNK d   0     -25.055 -23.972  14.204  0.00  0.00     0.052 C 
BRANCH  65  66
ATOM     66  C   UNK d   0     -26.515 -24.255  14.227  0.00  0.00     0.115 C 
BRANCH  66  67
ATOM     67  C   UNK d   0     -27.107 -25.026  13.169  0.00  0.00     0.139 C 
ATOM     68  O   UNK d   0     -28.194 -25.669  13.412  0.00  0.00    -0.650 OA
BRANCH  67  69
ATOM     69  O   UNK d   0     -26.645 -25.177  11.862  0.00  0.00    -0.776 OA
ATOM     70  H   UNK d   0     -27.362 -25.125  11.125  0.00  0.00     0.167 HD
ENDBRANCH  67  69
ENDBRANCH  66  67
ENDBRANCH  65  66
ENDBRANCH  14  65
ENDBRANCH   6   7
ENDBRANCH   5   6
ENDBRANCH   2   5
TORSDOF 28
ENDMDL
MODEL 15
REMARK VINA RESULT:      -8.7      2.265      7.619
REMARK  28 active torsions:
REMARK  status: ('A' for Active; 'I' for Inactive)
REMARK    1  A    between atoms: C_2  and  O_3 
REMARK    2  A    between atoms: C_2  and  C_4 
REMARK    3  A    between atoms: C_4  and  C_5 
REMARK    4  A    between atoms: C_5  and  C_6 
REMARK    5  A    between atoms: C_7  and  C_8 
REMARK    6  A    between atoms: C_8  and  C_9 
REMARK    7  A    between atoms: C_9  and  O_11 
REMARK    8  A    between atoms: C_28  and  C_29 
REMARK    9  A    between atoms: C_29  and  C_30 
REMARK   10  A    between atoms: C_30  and  O_32 
REMARK   11  A    between atoms: C_33  and  C_34 
REMARK   12  A    between atoms: C_34  and  C_35 
REMARK   13  A    between atoms: C_35  and  C_36 
REMARK   14  A    between atoms: C_36  and  O_38 
REMARK   15  A    between atoms: C_39  and  C_40 
REMARK   16  A    between atoms: C_40  and  C_41 
REMARK   17  A    between atoms: C_41  and  C_42 
REMARK   18  A    between atoms: C_42  and  O_44 
REMARK   19  A    between atoms: C_45  and  C_46 
REMARK   20  A    between atoms: C_46  and  C_47 
REMARK   21  A    between atoms: C_47  and  O_49 
REMARK   22  A    between atoms: C_50  and  C_51 
REMARK   23  A    between atoms: C_51  and  C_52 
REMARK   24  A    between atoms: C_52  and  O_54 
REMARK   25  A    between atoms: C_55  and  C_56 
REMARK   26  A    between atoms: C_56  and  C_57 
REMARK   27  A    between atoms: C_57  and  C_58 
REMARK   28  A    between atoms: C_58  and  O_60 
ROOT
ATOM      1  O   UNK d   0     -18.641 -17.793  24.563  0.00  0.00    -0.650 OA
ATOM      2  C   UNK d   0     -19.658 -17.136  24.881  0.00  0.00     0.139 C 
ENDROOT
BRANCH   2   3
ATOM      3  O   UNK d   0     -19.713 -16.537  26.117  0.00  0.00    -0.776 OA
ATOM      4  H   UNK d   0     -18.865 -16.374  26.662  0.00  0.00     0.167 HD
ENDBRANCH   2   3
BRANCH   2   5
ATOM      5  C   UNK d   0     -20.795 -17.008  23.926  0.00  0.00     0.115 C 
BRANCH   5   6
ATOM      6  C   UNK d   0     -22.050 -17.568  24.538  0.00  0.00     0.052 C 
BRANCH   6   7
ATOM      7  C   UNK d   0     -22.383 -18.947  24.022  0.00  0.00    -0.020 A 
ATOM      8  C   UNK d   0     -23.389 -19.294  23.261  0.00  0.00    -0.011 A 
ATOM      9  C   UNK d   0     -23.302 -20.726  23.032  0.00  0.00     0.067 A 
ATOM     10  C   UNK d   0     -24.034 -21.683  22.311  0.00  0.00     0.062 C 
ATOM     11  N   UNK d   0     -22.215 -21.173  23.697  0.00  0.00    -0.248 NA
ATOM     12  C   UNK d   0     -23.634 -22.983  21.981  0.00  0.00     0.041 A 
ATOM     13  N   UNK d   0     -23.006 -23.928  22.706  0.00  0.00    -0.355 N 
ATOM     14  C   UNK d   0     -23.838 -23.444  20.668  0.00  0.00    -0.022 A 
ATOM     15  C   UNK d   0     -22.799 -24.975  21.884  0.00  0.00     0.042 A 
ATOM     16  H   UNK d   0     -22.732 -23.865  23.782  0.00  0.00     0.166 HD
ATOM     17  C   UNK d   0     -22.187 -26.220  22.129  0.00  0.00     0.062 C 
ATOM     18  C   UNK d   0     -23.307 -24.708  20.598  0.00  0.00    -0.013 A 
ATOM     19  C   UNK d   0     -21.021 -26.492  22.798  0.00  0.00     0.067 A 
ATOM     20  N   UNK d   0     -20.473 -25.489  23.489  0.00  0.00    -0.248 NA
ATOM     21  C   UNK d   0     -20.155 -27.648  22.960  0.00  0.00    -0.011 A 
ATOM     22  C   UNK d   0     -19.310 -25.905  24.089  0.00  0.00     0.066 A 
ATOM     23  C   UNK d   0     -18.653 -24.968  24.874  0.00  0.00     0.062 C 
ATOM     24  C   UNK d   0     -19.153 -27.296  23.714  0.00  0.00    -0.020 A 
ATOM     25  C   UNK d   0     -19.077 -23.672  25.203  0.00  0.00     0.041 A 
ATOM     26  N   UNK d   0     -19.688 -22.727  24.479  0.00  0.00    -0.355 N 
ATOM     27  C   UNK d   0     -18.876 -23.211  26.523  0.00  0.00    -0.022 A 
ATOM     28  C   UNK d   0     -19.888 -21.679  25.294  0.00  0.00     0.042 A 
ATOM     29  H   UNK d   0     -19.953 -22.788  23.395  0.00  0.00     0.166 HD
ATOM     30  C   UNK d   0     -20.486 -20.430  25.062  0.00  0.00     0.062 C 
ATOM     31  C   UNK d   0     -19.387 -21.951  26.589  0.00  0.00    -0.013 A 
ATOM     32  C   UNK d   0     -21.618 -20.151  24.313  0.00  0.00     0.066 A 
BRANCH   8  33
ATOM     33  C   UNK d   0     -24.438 -18.407  22.724  0.00  0.00     0.151 C 
BRANCH  33  34
ATOM     34  C   UNK d   0     -25.790 -18.982  22.851  0.00  0.00     0.143 C 
ATOM     35  O   UNK d   0     -26.277 -19.224  23.964  0.00  0.00    -0.650 OA
BRANCH  34  36
ATOM     36  O   UNK d   0     -26.518 -19.252  21.715  0.00  0.00    -0.776 OA
ATOM     37  H   UNK d   0     -27.543 -19.163  21.704  0.00  0.00     0.167 HD
ENDBRANCH  34  36
ENDBRANCH  33  34
ENDBRANCH   8  33
BRANCH  31  38
ATOM     38  C   UNK d   0     -19.411 -21.062  27.810  0.00  0.00     0.151 C 
BRANCH  38  39
ATOM     39  C   UNK d   0     -18.224 -20.243  27.932  0.00  0.00     0.143 C 
ATOM     40  O   UNK d   0     -17.252 -20.580  28.631  0.00  0.00    -0.650 OA
BRANCH  39  41
ATOM     41  O   UNK d   0     -18.153 -19.030  27.247  0.00  0.00    -0.776 OA
ATOM     42  H   UNK d   0     -17.668 -19.038  26.344  0.00  0.00     0.167 HD
ENDBRANCH  39  41
ENDBRANCH  38  39
ENDBRANCH  31  38
BRANCH  27  43
ATOM     43  C   UNK d   0     -18.230 -23.908  27.694  0.00  0.00     0.052 C 
BRANCH  43  44
ATOM     44  C   UNK d   0     -16.737 -23.897  27.638  0.00  0.00     0.115 C 
BRANCH  44  45
ATOM     45  C   UNK d   0     -16.296 -25.309  27.776  0.00  0.00     0.139 C 
ATOM     46  O   UNK d   0     -17.177 -26.203  27.812  0.00  0.00    -0.650 OA
BRANCH  45  47
ATOM     47  O   UNK d   0     -14.970 -25.673  27.858  0.00  0.00    -0.776 OA
ATOM     48  H   UNK d   0     -14.659 -26.658  27.883  0.00  0.00     0.167 HD
ENDBRANCH  45  47
ENDBRANCH  44  45
ENDBRANCH  43  44
ENDBRANCH  27  43
BRANCH  24  49
ATOM     49  C   UNK d   0     -18.056 -28.170  24.164  0.00  0.00     0.052 C 
BRANCH  49  50
ATOM     50  C   UNK d   0     -18.393 -28.791  25.496  0.00  0.00     0.115 C 
BRANCH  50  51
ATOM     51  C   UNK d   0     -17.808 -30.092  25.790  0.00  0.00     0.139 C 
ATOM     52  O   UNK d   0     -18.484 -31.147  25.818  0.00  0.00    -0.650 OA
BRANCH  51  53
ATOM     53  O   UNK d   0     -16.450 -30.189  26.055  0.00  0.00    -0.776 OA
ATOM     54  H   UNK d   0     -15.829 -29.547  25.596  0.00  0.00     0.167 HD
ENDBRANCH  51  53
ENDBRANCH  50  51
ENDBRANCH  49  50
ENDBRANCH  24  49
BRANCH  21  55
ATOM     55  C   UNK d   0     -20.421 -28.983  22.349  0.00  0.00     0.151 C 
BRANCH  55  56
ATOM     56  C   UNK d   0     -20.892 -29.960  23.343  0.00  0.00     0.143 C 
ATOM     57  O   UNK d   0     -21.750 -29.686  24.205  0.00  0.00    -0.650 OA
BRANCH  56  58
ATOM     58  O   UNK d   0     -20.345 -31.242  23.304  0.00  0.00    -0.776 OA
ATOM     59  H   UNK d   0     -19.626 -31.387  22.572  0.00  0.00     0.167 HD
ENDBRANCH  56  58
ENDBRANCH  55  56
ENDBRANCH  21  55
BRANCH  18  60
ATOM     60  C   UNK d   0     -23.299 -25.576  19.364  0.00  0.00     0.151 C 
BRANCH  60  61
ATOM     61  C   UNK d   0     -24.151 -26.733  19.678  0.00  0.00     0.143 C 
ATOM     62  O   UNK d   0     -23.973 -27.901  19.334  0.00  0.00    -0.650 OA
BRANCH  61  63
ATOM     63  O   UNK d   0     -25.293 -26.444  20.463  0.00  0.00    -0.776 OA
ATOM     64  H   UNK d   0     -25.851 -25.627  20.287  0.00  0.00     0.167 HD
ENDBRANCH  61  63
ENDBRANCH  60  61
ENDBRANCH  18  60
BRANCH  14  65
ATOM     65  C   UNK d   0     -24.576 -22.827  19.515  0.00  0.00     0.052 C 
BRANCH  65  66
ATOM     66  C   UNK d   0     -23.791 -21.770  18.821  0.00  0.00     0.115 C 
BRANCH  66  67
ATOM     67  C   UNK d   0     -23.100 -22.083  17.601  0.00  0.00     0.139 C 
ATOM     68  O   UNK d   0     -23.539 -23.050  16.878  0.00  0.00    -0.650 OA
BRANCH  67  69
ATOM     69  O   UNK d   0     -21.972 -21.454  17.075  0.00  0.00    -0.776 OA
ATOM     70  H   UNK d   0     -21.289 -21.108  17.765  0.00  0.00     0.167 HD
ENDBRANCH  67  69
ENDBRANCH  66  67
ENDBRANCH  65  66
ENDBRANCH  14  65
ENDBRANCH   6   7
ENDBRANCH   5   6
ENDBRANCH   2   5
TORSDOF 28
ENDMDL
MODEL 16
REMARK VINA RESULT:      -8.6      4.331     10.188
REMARK  28 active torsions:
REMARK  status: ('A' for Active; 'I' for Inactive)
REMARK    1  A    between atoms: C_2  and  O_3 
REMARK    2  A    between atoms: C_2  and  C_4 
REMARK    3  A    between atoms: C_4  and  C_5 
REMARK    4  A    between atoms: C_5  and  C_6 
REMARK    5  A    between atoms: C_7  and  C_8 
REMARK    6  A    between atoms: C_8  and  C_9 
REMARK    7  A    between atoms: C_9  and  O_11 
REMARK    8  A    between atoms: C_28  and  C_29 
REMARK    9  A    between atoms: C_29  and  C_30 
REMARK   10  A    between atoms: C_30  and  O_32 
REMARK   11  A    between atoms: C_33  and  C_34 
REMARK   12  A    between atoms: C_34  and  C_35 
REMARK   13  A    between atoms: C_35  and  C_36 
REMARK   14  A    between atoms: C_36  and  O_38 
REMARK   15  A    between atoms: C_39  and  C_40 
REMARK   16  A    between atoms: C_40  and  C_41 
REMARK   17  A    between atoms: C_41  and  C_42 
REMARK   18  A    between atoms: C_42  and  O_44 
REMARK   19  A    between atoms: C_45  and  C_46 
REMARK   20  A    between atoms: C_46  and  C_47 
REMARK   21  A    between atoms: C_47  and  O_49 
REMARK   22  A    between atoms: C_50  and  C_51 
REMARK   23  A    between atoms: C_51  and  C_52 
REMARK   24  A    between atoms: C_52  and  O_54 
REMARK   25  A    between atoms: C_55  and  C_56 
REMARK   26  A    between atoms: C_56  and  C_57 
REMARK   27  A    between atoms: C_57  and  C_58 
REMARK   28  A    between atoms: C_58  and  O_60 
ROOT
ATOM      1  O   UNK d   0     -18.227 -28.151  14.718  0.00  0.00    -0.650 OA
ATOM      2  C   UNK d   0     -19.205 -28.608  14.085  0.00  0.00     0.139 C 
ENDROOT
BRANCH   2   3
ATOM      3  O   UNK d   0     -19.195 -29.924  13.690  0.00  0.00    -0.776 OA
ATOM      4  H   UNK d   0     -18.606 -30.613  14.164  0.00  0.00     0.167 HD
ENDBRANCH   2   3
BRANCH   2   5
ATOM      5  C   UNK d   0     -20.366 -27.731  13.765  0.00  0.00     0.115 C 
BRANCH   5   6
ATOM      6  C   UNK d   0     -21.650 -28.404  14.166  0.00  0.00     0.052 C 
BRANCH   6   7
ATOM      7  C   UNK d   0     -21.961 -28.235  15.634  0.00  0.00    -0.020 A 
ATOM      8  C   UNK d   0     -21.908 -29.146  16.572  0.00  0.00    -0.011 A 
ATOM      9  C   UNK d   0     -22.301 -28.520  17.823  0.00  0.00     0.067 A 
ATOM     10  C   UNK d   0     -22.430 -28.925  19.161  0.00  0.00     0.062 C 
ATOM     11  N   UNK d   0     -22.582 -27.228  17.554  0.00  0.00    -0.248 NA
ATOM     12  C   UNK d   0     -22.556 -28.103  20.286  0.00  0.00     0.041 A 
ATOM     13  N   UNK d   0     -23.287 -26.991  20.495  0.00  0.00    -0.355 N 
ATOM     14  C   UNK d   0     -21.779 -28.384  21.425  0.00  0.00    -0.022 A 
ATOM     15  C   UNK d   0     -22.987 -26.555  21.733  0.00  0.00     0.042 A 
ATOM     16  H   UNK d   0     -24.014 -26.535  19.788  0.00  0.00     0.166 HD
ATOM     17  C   UNK d   0     -23.466 -25.440  22.449  0.00  0.00     0.062 C 
ATOM     18  C   UNK d   0     -22.045 -27.402  22.347  0.00  0.00    -0.013 A 
ATOM     19  C   UNK d   0     -23.643 -24.150  22.018  0.00  0.00     0.067 A 
ATOM     20  N   UNK d   0     -23.546 -23.932  20.704  0.00  0.00    -0.248 NA
ATOM     21  C   UNK d   0     -23.913 -22.867  22.645  0.00  0.00    -0.011 A 
ATOM     22  C   UNK d   0     -23.731 -22.600  20.427  0.00  0.00     0.066 A 
ATOM     23  C   UNK d   0     -23.693 -22.238  19.088  0.00  0.00     0.062 C 
ATOM     24  C   UNK d   0     -23.959 -21.963  21.709  0.00  0.00    -0.020 A 
ATOM     25  C   UNK d   0     -23.578 -23.081  17.972  0.00  0.00     0.041 A 
ATOM     26  N   UNK d   0     -22.840 -24.177  17.760  0.00  0.00    -0.355 N 
ATOM     27  C   UNK d   0     -24.361 -22.800  16.831  0.00  0.00    -0.022 A 
ATOM     28  C   UNK d   0     -23.130 -24.609  16.522  0.00  0.00     0.042 A 
ATOM     29  H   UNK d   0     -22.102 -24.629  18.467  0.00  0.00     0.166 HD
ATOM     30  C   UNK d   0     -22.655 -25.711  15.794  0.00  0.00     0.062 C 
ATOM     31  C   UNK d   0     -24.085 -23.763  15.909  0.00  0.00    -0.013 A 
ATOM     32  C   UNK d   0     -22.396 -26.992  16.254  0.00  0.00     0.066 A 
BRANCH   8  33
ATOM     33  C   UNK d   0     -21.527 -30.561  16.410  0.00  0.00     0.151 C 
BRANCH  33  34
ATOM     34  C   UNK d   0     -20.267 -30.895  17.100  0.00  0.00     0.143 C 
ATOM     35  O   UNK d   0     -19.358 -30.059  17.205  0.00  0.00    -0.650 OA
BRANCH  34  36
ATOM     36  O   UNK d   0     -20.101 -32.153  17.631  0.00  0.00    -0.776 OA
ATOM     37  H   UNK d   0     -20.871 -32.836  17.637  0.00  0.00     0.167 HD
ENDBRANCH  34  36
ENDBRANCH  33  34
ENDBRANCH   8  33
BRANCH  31  38
ATOM     38  C   UNK d   0     -24.699 -23.882  14.534  0.00  0.00     0.151 C 
BRANCH  38  39
ATOM     39  C   UNK d   0     -23.745 -23.646  13.471  0.00  0.00     0.143 C 
ATOM     40  O   UNK d   0     -23.625 -24.414  12.501  0.00  0.00    -0.650 OA
BRANCH  39  41
ATOM     41  O   UNK d   0     -22.925 -22.519  13.523  0.00  0.00    -0.776 OA
ATOM     42  H   UNK d   0     -23.355 -21.623  13.273  0.00  0.00     0.167 HD
ENDBRANCH  39  41
ENDBRANCH  38  39
ENDBRANCH  31  38
BRANCH  27  43
ATOM     43  C   UNK d   0     -25.338 -21.676  16.592  0.00  0.00     0.052 C 
BRANCH  43  44
ATOM     44  C   UNK d   0     -24.819 -20.632  15.657  0.00  0.00     0.115 C 
BRANCH  44  45
ATOM     45  C   UNK d   0     -23.515 -20.179  16.208  0.00  0.00     0.139 C 
ATOM     46  O   UNK d   0     -23.527 -19.340  17.142  0.00  0.00    -0.650 OA
BRANCH  45  47
ATOM     47  O   UNK d   0     -22.305 -20.644  15.741  0.00  0.00    -0.776 OA
ATOM     48  H   UNK d   0     -21.916 -20.371  14.824  0.00  0.00     0.167 HD
ENDBRANCH  45  47
ENDBRANCH  44  45
ENDBRANCH  43  44
ENDBRANCH  27  43
BRANCH  24  49
ATOM     49  C   UNK d   0     -24.246 -20.531  21.898  0.00  0.00     0.052 C 
BRANCH  49  50
ATOM     50  C   UNK d   0     -25.691 -20.240  21.584  0.00  0.00     0.115 C 
BRANCH  50  51
ATOM     51  C   UNK d   0     -26.567 -19.934  22.707  0.00  0.00     0.139 C 
ATOM     52  O   UNK d   0     -26.438 -18.900  23.404  0.00  0.00    -0.650 OA
BRANCH  51  53
ATOM     53  O   UNK d   0     -27.589 -20.810  23.037  0.00  0.00    -0.776 OA
ATOM     54  H   UNK d   0     -28.174 -21.159  22.298  0.00  0.00     0.167 HD
ENDBRANCH  51  53
ENDBRANCH  50  51
ENDBRANCH  49  50
ENDBRANCH  24  49
BRANCH  21  55
ATOM     55  C   UNK d   0     -24.101 -22.678  24.114  0.00  0.00     0.151 C 
BRANCH  55  56
ATOM     56  C   UNK d   0     -25.494 -22.914  24.526  0.00  0.00     0.143 C 
ATOM     57  O   UNK d   0     -26.140 -23.921  24.177  0.00  0.00    -0.650 OA
BRANCH  56  58
ATOM     58  O   UNK d   0     -26.099 -21.960  25.343  0.00  0.00    -0.776 OA
ATOM     59  H   UNK d   0     -26.640 -21.234  24.838  0.00  0.00     0.167 HD
ENDBRANCH  56  58
ENDBRANCH  55  56
ENDBRANCH  21  55
BRANCH  18  60
ATOM     60  C   UNK d   0     -21.419 -27.310  23.717  0.00  0.00     0.151 C 
BRANCH  60  61
ATOM     61  C   UNK d   0     -20.179 -26.537  23.543  0.00  0.00     0.143 C 
ATOM     62  O   UNK d   0     -19.054 -26.981  23.312  0.00  0.00    -0.650 OA
BRANCH  61  63
ATOM     63  O   UNK d   0     -20.324 -25.134  23.657  0.00  0.00    -0.776 OA
ATOM     64  H   UNK d   0     -20.342 -24.546  22.842  0.00  0.00     0.167 HD
ENDBRANCH  61  63
ENDBRANCH  60  61
ENDBRANCH  18  60
BRANCH  14  65
ATOM     65  C   UNK d   0     -20.888 -29.552  21.741  0.00  0.00     0.052 C 
BRANCH  65  66
ATOM     66  C   UNK d   0     -19.634 -29.560  20.940  0.00  0.00     0.115 C 
BRANCH  66  67
ATOM     67  C   UNK d   0     -18.987 -30.807  20.645  0.00  0.00     0.139 C 
ATOM     68  O   UNK d   0     -19.317 -31.846  21.327  0.00  0.00    -0.650 OA
BRANCH  67  69
ATOM     69  O   UNK d   0     -18.010 -31.054  19.681  0.00  0.00    -0.776 OA
ATOM     70  H   UNK d   0     -18.221 -31.808  19.012  0.00  0.00     0.167 HD
ENDBRANCH  67  69
ENDBRANCH  66  67
ENDBRANCH  65  66
ENDBRANCH  14  65
ENDBRANCH   6   7
ENDBRANCH   5   6
ENDBRANCH   2   5
TORSDOF 28
ENDMDL
MODEL 17
REMARK VINA RESULT:      -8.5      1.989      7.997
REMARK  28 active torsions:
REMARK  status: ('A' for Active; 'I' for Inactive)
REMARK    1  A    between atoms: C_2  and  O_3 
REMARK    2  A    between atoms: C_2  and  C_4 
REMARK    3  A    between atoms: C_4  and  C_5 
REMARK    4  A    between atoms: C_5  and  C_6 
REMARK    5  A    between atoms: C_7  and  C_8 
REMARK    6  A    between atoms: C_8  and  C_9 
REMARK    7  A    between atoms: C_9  and  O_11 
REMARK    8  A    between atoms: C_28  and  C_29 
REMARK    9  A    between atoms: C_29  and  C_30 
REMARK   10  A    between atoms: C_30  and  O_32 
REMARK   11  A    between atoms: C_33  and  C_34 
REMARK   12  A    between atoms: C_34  and  C_35 
REMARK   13  A    between atoms: C_35  and  C_36 
REMARK   14  A    between atoms: C_36  and  O_38 
REMARK   15  A    between atoms: C_39  and  C_40 
REMARK   16  A    between atoms: C_40  and  C_41 
REMARK   17  A    between atoms: C_41  and  C_42 
REMARK   18  A    between atoms: C_42  and  O_44 
REMARK   19  A    between atoms: C_45  and  C_46 
REMARK   20  A    between atoms: C_46  and  C_47 
REMARK   21  A    between atoms: C_47  and  O_49 
REMARK   22  A    between atoms: C_50  and  C_51 
REMARK   23  A    between atoms: C_51  and  C_52 
REMARK   24  A    between atoms: C_52  and  O_54 
REMARK   25  A    between atoms: C_55  and  C_56 
REMARK   26  A    between atoms: C_56  and  C_57 
REMARK   27  A    between atoms: C_57  and  C_58 
REMARK   28  A    between atoms: C_58  and  O_60 
ROOT
ATOM      1  O   UNK d   0     -15.720 -26.427  26.663  0.00  0.00    -0.650 OA
ATOM      2  C   UNK d   0     -16.499 -25.719  25.987  0.00  0.00     0.139 C 
ENDROOT
BRANCH   2   3
ATOM      3  O   UNK d   0     -16.363 -25.684  24.620  0.00  0.00    -0.776 OA
ATOM      4  H   UNK d   0     -16.737 -24.906  24.072  0.00  0.00     0.167 HD
ENDBRANCH   2   3
BRANCH   2   5
ATOM      5  C   UNK d   0     -17.561 -24.921  26.663  0.00  0.00     0.115 C 
BRANCH   5   6
ATOM      6  C   UNK d   0     -17.087 -23.511  26.885  0.00  0.00     0.052 C 
BRANCH   6   7
ATOM      7  C   UNK d   0     -18.167 -22.487  26.629  0.00  0.00    -0.020 A 
ATOM      8  C   UNK d   0     -18.399 -21.387  27.299  0.00  0.00    -0.011 A 
ATOM      9  C   UNK d   0     -19.544 -20.729  26.691  0.00  0.00     0.067 A 
ATOM     10  C   UNK d   0     -20.264 -19.544  26.908  0.00  0.00     0.062 C 
ATOM     11  N   UNK d   0     -19.950 -21.502  25.661  0.00  0.00    -0.248 NA
ATOM     12  C   UNK d   0     -21.175 -18.935  26.038  0.00  0.00     0.041 A 
ATOM     13  N   UNK d   0     -22.154 -19.455  25.274  0.00  0.00    -0.355 N 
ATOM     14  C   UNK d   0     -21.089 -17.547  25.825  0.00  0.00    -0.022 A 
ATOM     15  C   UNK d   0     -22.686 -18.434  24.576  0.00  0.00     0.042 A 
ATOM     16  H   UNK d   0     -22.476 -20.519  25.243  0.00  0.00     0.166 HD
ATOM     17  C   UNK d   0     -23.736 -18.420  23.635  0.00  0.00     0.062 C 
ATOM     18  C   UNK d   0     -22.044 -17.222  24.894  0.00  0.00    -0.013 A 
ATOM     19  C   UNK d   0     -23.971 -19.279  22.593  0.00  0.00     0.067 A 
ATOM     20  N   UNK d   0     -23.242 -20.397  22.554  0.00  0.00    -0.248 NA
ATOM     21  C   UNK d   0     -24.847 -19.299  21.433  0.00  0.00    -0.011 A 
ATOM     22  C   UNK d   0     -23.577 -21.147  21.453  0.00  0.00     0.066 A 
ATOM     23  C   UNK d   0     -22.919 -22.359  21.310  0.00  0.00     0.062 C 
ATOM     24  C   UNK d   0     -24.608 -20.393  20.768  0.00  0.00    -0.020 A 
ATOM     25  C   UNK d   0     -22.016 -22.959  22.201  0.00  0.00     0.041 A 
ATOM     26  N   UNK d   0     -21.033 -22.445  22.950  0.00  0.00    -0.355 N 
ATOM     27  C   UNK d   0     -22.106 -24.352  22.418  0.00  0.00    -0.022 A 
ATOM     28  C   UNK d   0     -20.495 -23.462  23.640  0.00  0.00     0.042 A 
ATOM     29  H   UNK d   0     -20.704 -21.377  22.971  0.00  0.00     0.166 HD
ATOM     30  C   UNK d   0     -19.445 -23.492  24.572  0.00  0.00     0.062 C 
ATOM     31  C   UNK d   0     -21.147 -24.678  23.327  0.00  0.00    -0.013 A 
ATOM     32  C   UNK d   0     -19.162 -22.574  25.571  0.00  0.00     0.066 A 
BRANCH   8  33
ATOM     33  C   UNK d   0     -17.650 -20.887  28.466  0.00  0.00     0.151 C 
BRANCH  33  34
ATOM     34  C   UNK d   0     -18.331 -21.167  29.743  0.00  0.00     0.143 C 
ATOM     35  O   UNK d   0     -19.333 -21.895  29.784  0.00  0.00    -0.650 OA
BRANCH  34  36
ATOM     36  O   UNK d   0     -17.845 -20.610  30.904  0.00  0.00    -0.776 OA
ATOM     37  H   UNK d   0     -16.952 -20.098  30.918  0.00  0.00     0.167 HD
ENDBRANCH  34  36
ENDBRANCH  33  34
ENDBRANCH   8  33
BRANCH  31  38
ATOM     38  C   UNK d   0     -20.874 -26.058  23.878  0.00  0.00     0.151 C 
BRANCH  38  39
ATOM     39  C   UNK d   0     -19.905 -26.794  23.094  0.00  0.00     0.143 C 
ATOM     40  O   UNK d   0     -18.694 -26.511  23.099  0.00  0.00    -0.650 OA
BRANCH  39  41
ATOM     41  O   UNK d   0     -20.330 -27.860  22.302  0.00  0.00    -0.776 OA
ATOM     42  H   UNK d   0     -20.139 -27.793  21.297  0.00  0.00     0.167 HD
ENDBRANCH  39  41
ENDBRANCH  38  39
ENDBRANCH  31  38
BRANCH  27  43
ATOM     43  C   UNK d   0     -23.046 -25.358  21.804  0.00  0.00     0.052 C 
BRANCH  43  44
ATOM     44  C   UNK d   0     -24.281 -25.585  22.615  0.00  0.00     0.115 C 
BRANCH  44  45
ATOM     45  C   UNK d   0     -25.407 -24.988  21.850  0.00  0.00     0.139 C 
ATOM     46  O   UNK d   0     -25.200 -24.654  20.657  0.00  0.00    -0.650 OA
BRANCH  45  47
ATOM     47  O   UNK d   0     -26.659 -24.795  22.392  0.00  0.00    -0.776 OA
ATOM     48  H   UNK d   0     -27.149 -23.886  22.361  0.00  0.00     0.167 HD
ENDBRANCH  45  47
ENDBRANCH  44  45
ENDBRANCH  43  44
ENDBRANCH  27  43
BRANCH  24  49
ATOM     49  C   UNK d   0     -25.299 -20.833  19.544  0.00  0.00     0.052 C 
BRANCH  49  50
ATOM     50  C   UNK d   0     -24.808 -20.051  18.353  0.00  0.00     0.115 C 
BRANCH  50  51
ATOM     51  C   UNK d   0     -23.558 -20.482  17.744  0.00  0.00     0.139 C 
ATOM     52  O   UNK d   0     -23.155 -21.668  17.794  0.00  0.00    -0.650 OA
BRANCH  51  53
ATOM     53  O   UNK d   0     -22.764 -19.560  17.079  0.00  0.00    -0.776 OA
ATOM     54  H   UNK d   0     -22.790 -19.547  16.074  0.00  0.00     0.167 HD
ENDBRANCH  51  53
ENDBRANCH  50  51
ENDBRANCH  49  50
ENDBRANCH  24  49
BRANCH  21  55
ATOM     55  C   UNK d   0     -25.833 -18.226  21.112  0.00  0.00     0.151 C 
BRANCH  55  56
ATOM     56  C   UNK d   0     -25.175 -16.959  20.757  0.00  0.00     0.143 C 
ATOM     57  O   UNK d   0     -24.863 -16.667  19.586  0.00  0.00    -0.650 OA
BRANCH  56  58
ATOM     58  O   UNK d   0     -24.896 -16.061  21.786  0.00  0.00    -0.776 OA
ATOM     59  H   UNK d   0     -25.479 -15.205  21.787  0.00  0.00     0.167 HD
ENDBRANCH  56  58
ENDBRANCH  55  56
ENDBRANCH  21  55
BRANCH  18  60
ATOM     60  C   UNK d   0     -22.297 -15.832  24.364  0.00  0.00     0.151 C 
BRANCH  60  61
ATOM     61  C   UNK d   0     -23.465 -15.325  25.101  0.00  0.00     0.143 C 
ATOM     62  O   UNK d   0     -23.645 -15.356  26.319  0.00  0.00    -0.650 OA
BRANCH  61  63
ATOM     63  O   UNK d   0     -24.476 -14.743  24.300  0.00  0.00    -0.776 OA
ATOM     64  H   UNK d   0     -25.343 -15.222  24.129  0.00  0.00     0.167 HD
ENDBRANCH  61  63
ENDBRANCH  60  61
ENDBRANCH  18  60
BRANCH  14  65
ATOM     65  C   UNK d   0     -20.248 -16.501  26.500  0.00  0.00     0.052 C 
BRANCH  65  66
ATOM     66  C   UNK d   0     -18.814 -16.884  26.600  0.00  0.00     0.115 C 
BRANCH  66  67
ATOM     67  C   UNK d   0     -18.008 -16.353  27.663  0.00  0.00     0.139 C 
ATOM     68  O   UNK d   0     -18.187 -15.130  28.017  0.00  0.00    -0.650 OA
BRANCH  67  69
ATOM     69  O   UNK d   0     -17.017 -17.009  28.393  0.00  0.00    -0.776 OA
ATOM     70  H   UNK d   0     -16.395 -17.625  27.850  0.00  0.00     0.167 HD
ENDBRANCH  67  69
ENDBRANCH  66  67
ENDBRANCH  65  66
ENDBRANCH  14  65
ENDBRANCH   6   7
ENDBRANCH   5   6
ENDBRANCH   2   5
TORSDOF 28
ENDMDL
MODEL 18
REMARK VINA RESULT:      -8.5      4.305     10.620
REMARK  28 active torsions:
REMARK  status: ('A' for Active; 'I' for Inactive)
REMARK    1  A    between atoms: C_2  and  O_3 
REMARK    2  A    between atoms: C_2  and  C_4 
REMARK    3  A    between atoms: C_4  and  C_5 
REMARK    4  A    between atoms: C_5  and  C_6 
REMARK    5  A    between atoms: C_7  and  C_8 
REMARK    6  A    between atoms: C_8  and  C_9 
REMARK    7  A    between atoms: C_9  and  O_11 
REMARK    8  A    between atoms: C_28  and  C_29 
REMARK    9  A    between atoms: C_29  and  C_30 
REMARK   10  A    between atoms: C_30  and  O_32 
REMARK   11  A    between atoms: C_33  and  C_34 
REMARK   12  A    between atoms: C_34  and  C_35 
REMARK   13  A    between atoms: C_35  and  C_36 
REMARK   14  A    between atoms: C_36  and  O_38 
REMARK   15  A    between atoms: C_39  and  C_40 
REMARK   16  A    between atoms: C_40  and  C_41 
REMARK   17  A    between atoms: C_41  and  C_42 
REMARK   18  A    between atoms: C_42  and  O_44 
REMARK   19  A    between atoms: C_45  and  C_46 
REMARK   20  A    between atoms: C_46  and  C_47 
REMARK   21  A    between atoms: C_47  and  O_49 
REMARK   22  A    between atoms: C_50  and  C_51 
REMARK   23  A    between atoms: C_51  and  C_52 
REMARK   24  A    between atoms: C_52  and  O_54 
REMARK   25  A    between atoms: C_55  and  C_56 
REMARK   26  A    between atoms: C_56  and  C_57 
REMARK   27  A    between atoms: C_57  and  C_58 
REMARK   28  A    between atoms: C_58  and  O_60 
ROOT
ATOM      1  O   UNK d   0     -19.373 -30.993  13.469  0.00  0.00    -0.650 OA
ATOM      2  C   UNK d   0     -19.118 -30.343  14.507  0.00  0.00     0.139 C 
ENDROOT
BRANCH   2   3
ATOM      3  O   UNK d   0     -18.256 -30.872  15.438  0.00  0.00    -0.776 OA
ATOM      4  H   UNK d   0     -17.882 -30.297  16.196  0.00  0.00     0.167 HD
ENDBRANCH   2   3
BRANCH   2   5
ATOM      5  C   UNK d   0     -19.745 -29.009  14.728  0.00  0.00     0.115 C 
BRANCH   5   6
ATOM      6  C   UNK d   0     -21.245 -29.136  14.721  0.00  0.00     0.052 C 
BRANCH   6   7
ATOM      7  C   UNK d   0     -21.884 -28.538  15.952  0.00  0.00    -0.020 A 
ATOM      8  C   UNK d   0     -22.183 -29.146  17.071  0.00  0.00    -0.011 A 
ATOM      9  C   UNK d   0     -22.788 -28.169  17.960  0.00  0.00     0.067 A 
ATOM     10  C   UNK d   0     -23.295 -28.168  19.270  0.00  0.00     0.062 C 
ATOM     11  N   UNK d   0     -22.823 -26.993  17.299  0.00  0.00    -0.248 NA
ATOM     12  C   UNK d   0     -23.587 -27.054  20.064  0.00  0.00     0.041 A 
ATOM     13  N   UNK d   0     -24.195 -25.890  19.769  0.00  0.00    -0.355 N 
ATOM     14  C   UNK d   0     -23.159 -27.043  21.404  0.00  0.00    -0.022 A 
ATOM     15  C   UNK d   0     -24.157 -25.137  20.885  0.00  0.00     0.042 A 
ATOM     16  H   UNK d   0     -24.660 -25.613  18.797  0.00  0.00     0.166 HD
ATOM     17  C   UNK d   0     -24.648 -23.839  21.128  0.00  0.00     0.062 C 
ATOM     18  C   UNK d   0     -23.515 -25.827  21.931  0.00  0.00    -0.013 A 
ATOM     19  C   UNK d   0     -24.544 -22.717  20.346  0.00  0.00     0.067 A 
ATOM     20  N   UNK d   0     -24.097 -22.888  19.099  0.00  0.00    -0.248 NA
ATOM     21  C   UNK d   0     -24.791 -21.295  20.521  0.00  0.00    -0.011 A 
ATOM     22  C   UNK d   0     -24.032 -21.681  18.447  0.00  0.00     0.066 A 
ATOM     23  C   UNK d   0     -23.618 -21.718  17.123  0.00  0.00     0.062 C 
ATOM     24  C   UNK d   0     -24.485 -20.694  19.407  0.00  0.00    -0.020 A 
ATOM     25  C   UNK d   0     -23.342 -22.849  16.339  0.00  0.00     0.041 A 
ATOM     26  N   UNK d   0     -22.724 -24.000  16.628  0.00  0.00    -0.355 N 
ATOM     27  C   UNK d   0     -23.776 -22.861  14.996  0.00  0.00    -0.022 A 
ATOM     28  C   UNK d   0     -22.753 -24.749  15.515  0.00  0.00     0.042 A 
ATOM     29  H   UNK d   0     -22.249 -24.273  17.603  0.00  0.00     0.166 HD
ATOM     30  C   UNK d   0     -22.261 -26.038  15.256  0.00  0.00     0.062 C 
ATOM     31  C   UNK d   0     -23.408 -24.060  14.467  0.00  0.00    -0.013 A 
ATOM     32  C   UNK d   0     -22.293 -27.148  16.085  0.00  0.00     0.066 A 
BRANCH   8  33
ATOM     33  C   UNK d   0     -21.962 -30.568  17.392  0.00  0.00     0.151 C 
BRANCH  33  34
ATOM     34  C   UNK d   0     -20.622 -30.825  17.951  0.00  0.00     0.143 C 
ATOM     35  O   UNK d   0     -20.075 -30.001  18.698  0.00  0.00    -0.650 OA
BRANCH  34  36
ATOM     36  O   UNK d   0     -19.971 -31.995  17.636  0.00  0.00    -0.776 OA
ATOM     37  H   UNK d   0     -19.874 -32.754  18.324  0.00  0.00     0.167 HD
ENDBRANCH  34  36
ENDBRANCH  33  34
ENDBRANCH   8  33
BRANCH  31  38
ATOM     38  C   UNK d   0     -23.673 -24.530  13.056  0.00  0.00     0.151 C 
BRANCH  38  39
ATOM     39  C   UNK d   0     -24.739 -25.506  12.980  0.00  0.00     0.143 C 
ATOM     40  O   UNK d   0     -25.939 -25.188  13.049  0.00  0.00    -0.650 OA
BRANCH  39  41
ATOM     41  O   UNK d   0     -24.424 -26.856  12.823  0.00  0.00    -0.776 OA
ATOM     42  H   UNK d   0     -25.197 -27.523  12.908  0.00  0.00     0.167 HD
ENDBRANCH  39  41
ENDBRANCH  38  39
ENDBRANCH  31  38
BRANCH  27  43
ATOM     43  C   UNK d   0     -24.508 -21.798  14.215  0.00  0.00     0.052 C 
BRANCH  43  44
ATOM     44  C   UNK d   0     -25.986 -22.008  14.174  0.00  0.00     0.115 C 
BRANCH  44  45
ATOM     45  C   UNK d   0     -26.421 -21.696  12.787  0.00  0.00     0.139 C 
ATOM     46  O   UNK d   0     -27.057 -20.631  12.592  0.00  0.00    -0.650 OA
BRANCH  45  47
ATOM     47  O   UNK d   0     -26.150 -22.520  11.717  0.00  0.00    -0.776 OA
ATOM     48  H   UNK d   0     -25.307 -22.416  11.128  0.00  0.00     0.167 HD
ENDBRANCH  45  47
ENDBRANCH  44  45
ENDBRANCH  43  44
ENDBRANCH  27  43
BRANCH  24  49
ATOM     49  C   UNK d   0     -24.621 -19.254  19.132  0.00  0.00     0.052 C 
BRANCH  49  50
ATOM     50  C   UNK d   0     -26.074 -18.856  19.123  0.00  0.00     0.115 C 
BRANCH  50  51
ATOM     51  C   UNK d   0     -26.412 -17.559  19.694  0.00  0.00     0.139 C 
ATOM     52  O   UNK d   0     -27.440 -16.922  19.364  0.00  0.00    -0.650 OA
BRANCH  51  53
ATOM     53  O   UNK d   0     -25.575 -16.987  20.640  0.00  0.00    -0.776 OA
ATOM     54  H   UNK d   0     -24.749 -17.491  20.911  0.00  0.00     0.167 HD
ENDBRANCH  51  53
ENDBRANCH  50  51
ENDBRANCH  49  50
ENDBRANCH  24  49
BRANCH  21  55
ATOM     55  C   UNK d   0     -25.310 -20.686  21.781  0.00  0.00     0.151 C 
BRANCH  55  56
ATOM     56  C   UNK d   0     -24.275 -19.916  22.489  0.00  0.00     0.143 C 
ATOM     57  O   UNK d   0     -24.388 -18.699  22.733  0.00  0.00    -0.650 OA
BRANCH  56  58
ATOM     58  O   UNK d   0     -23.127 -20.594  22.895  0.00  0.00    -0.776 OA
ATOM     59  H   UNK d   0     -23.272 -21.588  23.145  0.00  0.00     0.167 HD
ENDBRANCH  56  58
ENDBRANCH  55  56
ENDBRANCH  21  55
BRANCH  18  60
ATOM     60  C   UNK d   0     -23.240 -25.384  23.347  0.00  0.00     0.151 C 
BRANCH  60  61
ATOM     61  C   UNK d   0     -22.112 -24.443  23.264  0.00  0.00     0.143 C 
ATOM     62  O   UNK d   0     -20.984 -24.674  22.829  0.00  0.00    -0.650 OA
BRANCH  61  63
ATOM     63  O   UNK d   0     -22.380 -23.138  23.743  0.00  0.00    -0.776 OA
ATOM     64  H   UNK d   0     -23.263 -22.912  24.166  0.00  0.00     0.167 HD
ENDBRANCH  61  63
ENDBRANCH  60  61
ENDBRANCH  18  60
BRANCH  14  65
ATOM     65  C   UNK d   0     -22.534 -28.122  22.243  0.00  0.00     0.052 C 
BRANCH  65  66
ATOM     66  C   UNK d   0     -21.049 -28.038  22.286  0.00  0.00     0.115 C 
BRANCH  66  67
ATOM     67  C   UNK d   0     -20.368 -28.120  23.548  0.00  0.00     0.139 C 
ATOM     68  O   UNK d   0     -19.814 -29.233  23.875  0.00  0.00    -0.650 OA
BRANCH  67  69
ATOM     69  O   UNK d   0     -20.222 -27.116  24.505  0.00  0.00    -0.776 OA
ATOM     70  H   UNK d   0     -19.688 -26.287  24.207  0.00  0.00     0.167 HD
ENDBRANCH  67  69
ENDBRANCH  66  67
ENDBRANCH  65  66
ENDBRANCH  14  65
ENDBRANCH   6   7
ENDBRANCH   5   6
ENDBRANCH   2   5
TORSDOF 28
ENDMDL
MODEL 19
REMARK VINA RESULT:      -8.2      1.722      2.175
REMARK  28 active torsions:
REMARK  status: ('A' for Active; 'I' for Inactive)
REMARK    1  A    between atoms: C_2  and  O_3 
REMARK    2  A    between atoms: C_2  and  C_4 
REMARK    3  A    between atoms: C_4  and  C_5 
REMARK    4  A    between atoms: C_5  and  C_6 
REMARK    5  A    between atoms: C_7  and  C_8 
REMARK    6  A    between atoms: C_8  and  C_9 
REMARK    7  A    between atoms: C_9  and  O_11 
REMARK    8  A    between atoms: C_28  and  C_29 
REMARK    9  A    between atoms: C_29  and  C_30 
REMARK   10  A    between atoms: C_30  and  O_32 
REMARK   11  A    between atoms: C_33  and  C_34 
REMARK   12  A    between atoms: C_34  and  C_35 
REMARK   13  A    between atoms: C_35  and  C_36 
REMARK   14  A    between atoms: C_36  and  O_38 
REMARK   15  A    between atoms: C_39  and  C_40 
REMARK   16  A    between atoms: C_40  and  C_41 
REMARK   17  A    between atoms: C_41  and  C_42 
REMARK   18  A    between atoms: C_42  and  O_44 
REMARK   19  A    between atoms: C_45  and  C_46 
REMARK   20  A    between atoms: C_46  and  C_47 
REMARK   21  A    between atoms: C_47  and  O_49 
REMARK   22  A    between atoms: C_50  and  C_51 
REMARK   23  A    between atoms: C_51  and  C_52 
REMARK   24  A    between atoms: C_52  and  O_54 
REMARK   25  A    between atoms: C_55  and  C_56 
REMARK   26  A    between atoms: C_56  and  C_57 
REMARK   27  A    between atoms: C_57  and  C_58 
REMARK   28  A    between atoms: C_58  and  O_60 
ROOT
ATOM      1  O   UNK d   0     -26.473 -18.271  20.442  0.00  0.00    -0.650 OA
ATOM      2  C   UNK d   0     -25.633 -17.488  20.939  0.00  0.00     0.139 C 
ENDROOT
BRANCH   2   3
ATOM      3  O   UNK d   0     -24.987 -16.588  20.125  0.00  0.00    -0.776 OA
ATOM      4  H   UNK d   0     -24.115 -16.835  19.653  0.00  0.00     0.167 HD
ENDBRANCH   2   3
BRANCH   2   5
ATOM      5  C   UNK d   0     -25.336 -17.536  22.399  0.00  0.00     0.115 C 
BRANCH   5   6
ATOM      6  C   UNK d   0     -23.936 -17.052  22.659  0.00  0.00     0.052 C 
BRANCH   6   7
ATOM      7  C   UNK d   0     -23.007 -18.163  23.086  0.00  0.00    -0.020 A 
ATOM      8  C   UNK d   0     -21.973 -18.077  23.883  0.00  0.00    -0.011 A 
ATOM      9  C   UNK d   0     -21.383 -19.401  23.991  0.00  0.00     0.067 A 
ATOM     10  C   UNK d   0     -20.304 -19.975  24.682  0.00  0.00     0.062 C 
ATOM     11  N   UNK d   0     -22.118 -20.231  23.222  0.00  0.00    -0.248 NA
ATOM     12  C   UNK d   0     -20.054 -21.337  24.881  0.00  0.00     0.041 A 
ATOM     13  N   UNK d   0     -20.150 -22.387  24.043  0.00  0.00    -0.355 N 
ATOM     14  C   UNK d   0     -19.687 -21.781  26.164  0.00  0.00    -0.022 A 
ATOM     15  C   UNK d   0     -19.860 -23.487  24.764  0.00  0.00     0.042 A 
ATOM     16  H   UNK d   0     -20.397 -22.350  22.960  0.00  0.00     0.166 HD
ATOM     17  C   UNK d   0     -19.810 -24.843  24.382  0.00  0.00     0.062 C 
ATOM     18  C   UNK d   0     -19.565 -23.147  26.098  0.00  0.00    -0.013 A 
ATOM     19  C   UNK d   0     -20.698 -25.556  23.617  0.00  0.00     0.067 A 
ATOM     20  N   UNK d   0     -21.637 -24.859  22.973  0.00  0.00    -0.248 NA
ATOM     21  C   UNK d   0     -20.917 -26.959  23.306  0.00  0.00    -0.011 A 
ATOM     22  C   UNK d   0     -22.456 -25.704  22.264  0.00  0.00     0.066 A 
ATOM     23  C   UNK d   0     -23.458 -25.107  21.514  0.00  0.00     0.062 C 
ATOM     24  C   UNK d   0     -21.950 -27.039  22.518  0.00  0.00    -0.020 A 
ATOM     25  C   UNK d   0     -23.684 -23.736  21.317  0.00  0.00     0.041 A 
ATOM     26  N   UNK d   0     -23.604 -22.694  22.153  0.00  0.00    -0.355 N 
ATOM     27  C   UNK d   0     -24.048 -23.290  20.028  0.00  0.00    -0.022 A 
ATOM     28  C   UNK d   0     -23.901 -21.597  21.439  0.00  0.00     0.042 A 
ATOM     29  H   UNK d   0     -23.365 -22.734  23.244  0.00  0.00     0.166 HD
ATOM     30  C   UNK d   0     -23.963 -20.244  21.808  0.00  0.00     0.062 C 
ATOM     31  C   UNK d   0     -24.187 -21.938  20.096  0.00  0.00    -0.013 A 
ATOM     32  C   UNK d   0     -23.111 -19.548  22.651  0.00  0.00     0.066 A 
BRANCH   8  33
ATOM     33  C   UNK d   0     -21.474 -16.864  24.557  0.00  0.00     0.151 C 
BRANCH  33  34
ATOM     34  C   UNK d   0     -21.989 -16.722  25.931  0.00  0.00     0.143 C 
ATOM     35  O   UNK d   0     -22.737 -15.782  26.236  0.00  0.00    -0.650 OA
BRANCH  34  36
ATOM     36  O   UNK d   0     -21.631 -17.645  26.885  0.00  0.00    -0.776 OA
ATOM     37  H   UNK d   0     -20.643 -17.831  27.105  0.00  0.00     0.167 HD
ENDBRANCH  34  36
ENDBRANCH  33  34
ENDBRANCH   8  33
BRANCH  31  38
ATOM     38  C   UNK d   0     -24.555 -21.021  18.953  0.00  0.00     0.151 C 
BRANCH  38  39
ATOM     39  C   UNK d   0     -23.408 -20.603  18.176  0.00  0.00     0.143 C 
ATOM     40  O   UNK d   0     -22.240 -20.792  18.559  0.00  0.00    -0.650 OA
BRANCH  39  41
ATOM     41  O   UNK d   0     -23.604 -19.964  16.952  0.00  0.00    -0.776 OA
ATOM     42  H   UNK d   0     -24.486 -19.456  16.832  0.00  0.00     0.167 HD
ENDBRANCH  39  41
ENDBRANCH  38  39
ENDBRANCH  31  38
BRANCH  27  43
ATOM     43  C   UNK d   0     -24.266 -24.086  18.765  0.00  0.00     0.052 C 
BRANCH  43  44
ATOM     44  C   UNK d   0     -23.058 -24.142  17.887  0.00  0.00     0.115 C 
BRANCH  44  45
ATOM     45  C   UNK d   0     -23.481 -23.646  16.551  0.00  0.00     0.139 C 
ATOM     46  O   UNK d   0     -24.595 -24.019  16.107  0.00  0.00    -0.650 OA
BRANCH  45  47
ATOM     47  O   UNK d   0     -22.708 -22.796  15.790  0.00  0.00    -0.776 OA
ATOM     48  H   UNK d   0     -21.678 -22.759  15.863  0.00  0.00     0.167 HD
ENDBRANCH  45  47
ENDBRANCH  44  45
ENDBRANCH  43  44
ENDBRANCH  27  43
BRANCH  24  49
ATOM     49  C   UNK d   0     -22.498 -28.272  21.928  0.00  0.00     0.052 C 
BRANCH  49  50
ATOM     50  C   UNK d   0     -22.402 -28.222  20.425  0.00  0.00     0.115 C 
BRANCH  50  51
ATOM     51  C   UNK d   0     -21.369 -29.035  19.797  0.00  0.00     0.139 C 
ATOM     52  O   UNK d   0     -21.398 -29.346  18.583  0.00  0.00    -0.650 OA
BRANCH  51  53
ATOM     53  O   UNK d   0     -20.303 -29.494  20.555  0.00  0.00    -0.776 OA
ATOM     54  H   UNK d   0     -19.398 -29.545  20.121  0.00  0.00     0.167 HD
ENDBRANCH  51  53
ENDBRANCH  50  51
ENDBRANCH  49  50
ENDBRANCH  24  49
BRANCH  21  55
ATOM     55  C   UNK d   0     -20.069 -28.072  23.826  0.00  0.00     0.151 C 
BRANCH  55  56
ATOM     56  C   UNK d   0     -18.681 -27.976  23.350  0.00  0.00     0.143 C 
ATOM     57  O   UNK d   0     -17.702 -27.965  24.121  0.00  0.00    -0.650 OA
BRANCH  56  58
ATOM     58  O   UNK d   0     -18.471 -27.896  21.974  0.00  0.00    -0.776 OA
ATOM     59  H   UNK d   0     -19.327 -27.747  21.410  0.00  0.00     0.167 HD
ENDBRANCH  56  58
ENDBRANCH  55  56
ENDBRANCH  21  55
BRANCH  18  60
ATOM     60  C   UNK d   0     -19.192 -24.038  27.257  0.00  0.00     0.151 C 
BRANCH  60  61
ATOM     61  C   UNK d   0     -17.825 -24.507  26.982  0.00  0.00     0.143 C 
ATOM     62  O   UNK d   0     -16.834 -23.813  26.755  0.00  0.00    -0.650 OA
BRANCH  61  63
ATOM     63  O   UNK d   0     -17.659 -25.913  26.985  0.00  0.00    -0.776 OA
ATOM     64  H   UNK d   0     -18.446 -26.528  27.092  0.00  0.00     0.167 HD
ENDBRANCH  61  63
ENDBRANCH  60  61
ENDBRANCH  18  60
BRANCH  14  65
ATOM     65  C   UNK d   0     -19.350 -21.011  27.409  0.00  0.00     0.052 C 
BRANCH  65  66
ATOM     66  C   UNK d   0     -17.926 -20.587  27.464  0.00  0.00     0.115 C 
BRANCH  66  67
ATOM     67  C   UNK d   0     -17.513 -19.599  28.420  0.00  0.00     0.139 C 
ATOM     68  O   UNK d   0     -16.889 -19.988  29.474  0.00  0.00    -0.650 OA
BRANCH  67  69
ATOM     69  O   UNK d   0     -17.706 -18.219  28.358  0.00  0.00    -0.776 OA
ATOM     70  H   UNK d   0     -16.853 -17.652  28.251  0.00  0.00     0.167 HD
ENDBRANCH  67  69
ENDBRANCH  66  67
ENDBRANCH  65  66
ENDBRANCH  14  65
ENDBRANCH   6   7
ENDBRANCH   5   6
ENDBRANCH   2   5
TORSDOF 28
ENDMDL
MODEL 20
REMARK VINA RESULT:      -8.1      4.514     12.167
REMARK  28 active torsions:
REMARK  status: ('A' for Active; 'I' for Inactive)
REMARK    1  A    between atoms: C_2  and  O_3 
REMARK    2  A    between atoms: C_2  and  C_4 
REMARK    3  A    between atoms: C_4  and  C_5 
REMARK    4  A    between atoms: C_5  and  C_6 
REMARK    5  A    between atoms: C_7  and  C_8 
REMARK    6  A    between atoms: C_8  and  C_9 
REMARK    7  A    between atoms: C_9  and  O_11 
REMARK    8  A    between atoms: C_28  and  C_29 
REMARK    9  A    between atoms: C_29  and  C_30 
REMARK   10  A    between atoms: C_30  and  O_32 
REMARK   11  A    between atoms: C_33  and  C_34 
REMARK   12  A    between atoms: C_34  and  C_35 
REMARK   13  A    between atoms: C_35  and  C_36 
REMARK   14  A    between atoms: C_36  and  O_38 
REMARK   15  A    between atoms: C_39  and  C_40 
REMARK   16  A    between atoms: C_40  and  C_41 
REMARK   17  A    between atoms: C_41  and  C_42 
REMARK   18  A    between atoms: C_42  and  O_44 
REMARK   19  A    between atoms: C_45  and  C_46 
REMARK   20  A    between atoms: C_46  and  C_47 
REMARK   21  A    between atoms: C_47  and  O_49 
REMARK   22  A    between atoms: C_50  and  C_51 
REMARK   23  A    between atoms: C_51  and  C_52 
REMARK   24  A    between atoms: C_52  and  O_54 
REMARK   25  A    between atoms: C_55  and  C_56 
REMARK   26  A    between atoms: C_56  and  C_57 
REMARK   27  A    between atoms: C_57  and  C_58 
REMARK   28  A    between atoms: C_58  and  O_60 
ROOT
ATOM      1  O   UNK d   0     -19.019 -32.393  16.543  0.00  0.00    -0.650 OA
ATOM      2  C   UNK d   0     -20.175 -32.038  16.223  0.00  0.00     0.139 C 
ENDROOT
BRANCH   2   3
ATOM      3  O   UNK d   0     -21.248 -32.511  16.939  0.00  0.00    -0.776 OA
ATOM      4  H   UNK d   0     -21.547 -33.485  16.858  0.00  0.00     0.167 HD
ENDBRANCH   2   3
BRANCH   2   5
ATOM      5  C   UNK d   0     -20.381 -31.110  15.075  0.00  0.00     0.115 C 
BRANCH   5   6
ATOM      6  C   UNK d   0     -21.827 -30.702  14.992  0.00  0.00     0.052 C 
BRANCH   6   7
ATOM      7  C   UNK d   0     -22.040 -29.246  15.331  0.00  0.00    -0.020 A 
ATOM      8  C   UNK d   0     -22.139 -28.240  14.501  0.00  0.00    -0.011 A 
ATOM      9  C   UNK d   0     -22.330 -27.032  15.286  0.00  0.00     0.067 A 
ATOM     10  C   UNK d   0     -22.520 -25.668  15.016  0.00  0.00     0.062 C 
ATOM     11  N   UNK d   0     -22.328 -27.395  16.586  0.00  0.00    -0.248 NA
ATOM     12  C   UNK d   0     -22.967 -24.682  15.903  0.00  0.00     0.041 A 
ATOM     13  N   UNK d   0     -22.654 -24.440  17.190  0.00  0.00    -0.355 N 
ATOM     14  C   UNK d   0     -23.955 -23.778  15.473  0.00  0.00    -0.022 A 
ATOM     15  C   UNK d   0     -23.424 -23.411  17.591  0.00  0.00     0.042 A 
ATOM     16  H   UNK d   0     -21.890 -24.974  17.797  0.00  0.00     0.166 HD
ATOM     17  C   UNK d   0     -23.499 -22.758  18.837  0.00  0.00     0.062 C 
ATOM     18  C   UNK d   0     -24.253 -22.969  16.542  0.00  0.00    -0.013 A 
ATOM     19  C   UNK d   0     -23.541 -23.303  20.095  0.00  0.00     0.067 A 
ATOM     20  N   UNK d   0     -23.282 -24.609  20.197  0.00  0.00    -0.248 NA
ATOM     21  C   UNK d   0     -23.824 -22.816  21.435  0.00  0.00    -0.011 A 
ATOM     22  C   UNK d   0     -23.376 -25.012  21.507  0.00  0.00     0.066 A 
ATOM     23  C   UNK d   0     -23.093 -26.346  21.763  0.00  0.00     0.062 C 
ATOM     24  C   UNK d   0     -23.730 -23.822  22.256  0.00  0.00    -0.020 A 
ATOM     25  C   UNK d   0     -22.633 -27.316  20.860  0.00  0.00     0.041 A 
ATOM     26  N   UNK d   0     -22.954 -27.566  19.585  0.00  0.00    -0.355 N 
ATOM     27  C   UNK d   0     -21.637 -28.221  21.290  0.00  0.00    -0.022 A 
ATOM     28  C   UNK d   0     -22.194 -28.598  19.186  0.00  0.00     0.042 A 
ATOM     29  H   UNK d   0     -23.730 -27.036  18.979  0.00  0.00     0.166 HD
ATOM     30  C   UNK d   0     -22.116 -29.263  17.952  0.00  0.00     0.062 C 
ATOM     31  C   UNK d   0     -21.354 -29.035  20.237  0.00  0.00    -0.013 A 
ATOM     32  C   UNK d   0     -22.159 -28.714  16.680  0.00  0.00     0.066 A 
BRANCH   8  33
ATOM     33  C   UNK d   0     -22.068 -28.297  13.029  0.00  0.00     0.151 C 
BRANCH  33  34
ATOM     34  C   UNK d   0     -23.391 -28.189  12.389  0.00  0.00     0.143 C 
ATOM     35  O   UNK d   0     -24.304 -28.976  12.677  0.00  0.00    -0.650 OA
BRANCH  34  36
ATOM     36  O   UNK d   0     -23.613 -27.200  11.458  0.00  0.00    -0.776 OA
ATOM     37  H   UNK d   0     -23.648 -27.413  10.451  0.00  0.00     0.167 HD
ENDBRANCH  34  36
ENDBRANCH  33  34
ENDBRANCH   8  33
BRANCH  31  38
ATOM     38  C   UNK d   0     -20.337 -30.152  20.223  0.00  0.00     0.151 C 
BRANCH  38  39
ATOM     39  C   UNK d   0     -19.027 -29.714  19.791  0.00  0.00     0.143 C 
ATOM     40  O   UNK d   0     -18.601 -29.923  18.641  0.00  0.00    -0.650 OA
BRANCH  39  41
ATOM     41  O   UNK d   0     -18.203 -29.030  20.684  0.00  0.00    -0.776 OA
ATOM     42  H   UNK d   0     -17.251 -28.820  20.366  0.00  0.00     0.167 HD
ENDBRANCH  39  41
ENDBRANCH  38  39
ENDBRANCH  31  38
BRANCH  27  43
ATOM     43  C   UNK d   0     -20.965 -28.337  22.635  0.00  0.00     0.052 C 
BRANCH  43  44
ATOM     44  C   UNK d   0     -21.638 -29.307  23.551  0.00  0.00     0.115 C 
BRANCH  44  45
ATOM     45  C   UNK d   0     -20.593 -30.264  23.998  0.00  0.00     0.139 C 
ATOM     46  O   UNK d   0     -20.485 -31.353  23.380  0.00  0.00    -0.650 OA
BRANCH  45  47
ATOM     47  O   UNK d   0     -19.743 -30.005  25.050  0.00  0.00    -0.776 OA
ATOM     48  H   UNK d   0     -19.112 -29.187  25.072  0.00  0.00     0.167 HD
ENDBRANCH  45  47
ENDBRANCH  44  45
ENDBRANCH  43  44
ENDBRANCH  27  43
BRANCH  24  49
ATOM     49  C   UNK d   0     -23.901 -23.769  23.718  0.00  0.00     0.052 C 
BRANCH  49  50
ATOM     50  C   UNK d   0     -25.307 -24.159  24.096  0.00  0.00     0.115 C 
BRANCH  50  51
ATOM     51  C   UNK d   0     -26.299 -23.094  24.155  0.00  0.00     0.139 C 
ATOM     52  O   UNK d   0     -27.272 -23.032  23.367  0.00  0.00    -0.650 OA
BRANCH  51  53
ATOM     53  O   UNK d   0     -26.180 -22.097  25.112  0.00  0.00    -0.776 OA
ATOM     54  H   UNK d   0     -25.818 -21.205  24.825  0.00  0.00     0.167 HD
ENDBRANCH  51  53
ENDBRANCH  50  51
ENDBRANCH  49  50
ENDBRANCH  24  49
BRANCH  21  55
ATOM     55  C   UNK d   0     -24.155 -21.396  21.756  0.00  0.00     0.151 C 
BRANCH  55  56
ATOM     56  C   UNK d   0     -22.989 -20.662  22.272  0.00  0.00     0.143 C 
ATOM     57  O   UNK d   0     -23.094 -19.668  23.016  0.00  0.00    -0.650 OA
BRANCH  56  58
ATOM     58  O   UNK d   0     -21.723 -21.112  21.902  0.00  0.00    -0.776 OA
ATOM     59  H   UNK d   0     -21.085 -20.377  21.548  0.00  0.00     0.167 HD
ENDBRANCH  56  58
ENDBRANCH  55  56
ENDBRANCH  21  55
BRANCH  18  60
ATOM     60  C   UNK d   0     -25.273 -21.857  16.526  0.00  0.00     0.151 C 
BRANCH  60  61
ATOM     61  C   UNK d   0     -24.544 -20.647  16.114  0.00  0.00     0.143 C 
ATOM     62  O   UNK d   0     -23.885 -19.897  16.834  0.00  0.00    -0.650 OA
BRANCH  61  63
ATOM     63  O   UNK d   0     -24.627 -20.334  14.736  0.00  0.00    -0.776 OA
ATOM     64  H   UNK d   0     -25.331 -20.750  14.151  0.00  0.00     0.167 HD
ENDBRANCH  61  63
ENDBRANCH  60  61
ENDBRANCH  18  60
BRANCH  14  65
ATOM     65  C   UNK d   0     -24.561 -23.559  14.116  0.00  0.00     0.052 C 
BRANCH  65  66
ATOM     66  C   UNK d   0     -25.786 -24.372  13.888  0.00  0.00     0.115 C 
BRANCH  66  67
ATOM     67  C   UNK d   0     -26.060 -24.893  12.579  0.00  0.00     0.139 C 
ATOM     68  O   UNK d   0     -26.300 -26.150  12.456  0.00  0.00    -0.650 OA
BRANCH  67  69
ATOM     69  O   UNK d   0     -26.103 -24.193  11.374  0.00  0.00    -0.776 OA
ATOM     70  H   UNK d   0     -26.073 -24.768  10.520  0.00  0.00     0.167 HD
ENDBRANCH  67  69
ENDBRANCH  66  67
ENDBRANCH  65  66
ENDBRANCH  14  65
ENDBRANCH   6   7
ENDBRANCH   5   6
ENDBRANCH   2   5
TORSDOF 28
ENDMDL
